
 ===================================================
  XFOIL Version 6.99
  Copyright (C) 2000   Mark Drela, Harold Youngren

  This software comes with ABSOLUTELY NO WARRANTY,
    subject to the GNU General Public License.

  Caveat computor
 ===================================================

 File  xfoil.def  not found

   QUIT    Exit program

  .OPER    Direct operating point(s)
  .MDES    Complex mapping design routine
  .QDES    Surface speed design routine
  .GDES    Geometry design routine

   SAVE f  Write airfoil to labeled coordinate file
   PSAV f  Write airfoil to plain coordinate file
   ISAV f  Write airfoil to ISES coordinate file
   MSAV f  Write airfoil to MSES coordinate file
   REVE    Reverse written-airfoil node ordering

   LOAD f  Read buffer airfoil from coordinate file
   NACA i  Set NACA 4,5-digit airfoil and buffer airfoil
   INTE    Set buffer airfoil by interpolating two airfoils
   NORM    Buffer airfoil normalization toggle
   XYCM rr Change CM reference location, currently  0.25000 0.00000

   BEND    Display structural properties of current airfoil

   PCOP    Set current-airfoil panel nodes directly from buffer airfoil points
   PANE    Set current-airfoil panel nodes ( 160 ) based on curvature
  .PPAR    Show/change paneling

  .PLOP    Plotting options

   WDEF f  Write  current-settings file
   RDEF f  Reread current-settings file
   NAME s  Specify new airfoil name
   NINC    Increment name version number

   Z       Zoom    | (available in all menus)
   U       Unzoom  | 

 XFOIL   c>   ...............................................

  G raphics-enable flag:        T
  S ize of plot object          10.00"
  A spect ratio of plot object   0.5500
  P age dimensions              11.00 x  8.50"
  M argins from page edges       0.00",  0.00"
  F ont size (relative)          0.0150
  W indow/screen size fraction   0.8000
  B lowup input method:        Cursor    
  O rientation of plot:        Landscape 
  C olor PostScript output?     F

      Option, Value   (or <Return>)    c>   ...............................................

  G raphics-enable flag:        F
  S ize of plot object          10.00"
  A spect ratio of plot object   0.5500
  P age dimensions              11.00 x  8.50"
  M argins from page edges       0.00",  0.00"
  F ont size (relative)          0.0150
  W indow/screen size fraction   0.8000
  B lowup input method:        Cursor    
  O rientation of plot:        Landscape 
  C olor PostScript output?     F

      Option, Value   (or <Return>)    c>  
 XFOIL   c>  
 Plain airfoil file

Enter airfoil name   s>  
 Number of input coordinate points:  35
 Counterclockwise ordering
 Max thickness =     0.080033  at x =   0.299
 Max camber    =     0.009842  at x =   0.400

  LE  x,y  =  -0.00001   0.00026  |   Chord =   1.00001
  TE  x,y  =   1.00000   0.00000  |

 Current airfoil nodes set from buffer airfoil nodes (  35 )

 WARNING: Poor input coordinate distribution
          Excessive panel angle   89.5  at i =  18
          Repaneling with PANE and/or PPAR suggested
           (doing GDES,CADD before repaneling _may_
            improve excessively coarse LE spacing

 XFOIL   c>   ITER command not recognized.  Type a "?" for list

 XFOIL   c>   300  command not recognized.  Type a "?" for list

 XFOIL   c>  
 XFOIL   c>  
 XFOIL   c>  
 XFOIL   c>  
.OPERi   c>  
.OPERi   c>  
.OPERi   c>  
 M  =    0.0000
 Re =   1000000

.OPERv   c>  
 Polar  1 newly created for accumulation
 Airfoil archived with polar: oper                                            

Enter  polar save filename  OR  <return> for no file   s>  
 Polar save file will NOT be written

Enter  polar dump filename  OR  <return> for no file   s>  
 Polar dump file will NOT be written

 Polar accumulation enabled

.OPERva   c>   Calculating unit vorticity distributions ...
 Calculating wake trajectory ...
 STFIND: Stagnation point not found. Continuing ...
 Calculating source influence matrix ...

 Solving BL system ...

 Initializing BL ...
    side            1  ...
 MRCHUE: Inverse mode at   2     Hk =   3.800
 MRCHUE: Convergence failed at   2  side 1    Res =         NaN
 TRCHEK2: N2 convergence failed.
 x:  0.00000  0.01342  0.01342  N:  0.000  9.000    NaN  Nx:     NaN   dN:       NaN
 MRCHUE: Inverse mode at   3     Hk =   3.800
 TRCHEK2: N2 convergence failed.
 x:  0.00000  0.01342  0.01342  N:  0.000  9.000    NaN  Nx:     NaN   dN:       NaN
 TRCHEK2: N2 convergence failed.
 x:  0.00000  0.01342  0.01342  N:  0.000  9.000    NaN  Nx:     NaN   dN:       NaN
 TRCHEK2: N2 convergence failed.
 x:  0.00000  0.01342  0.01342  N:  0.000  9.000    NaN  Nx:     NaN   dN:       NaN
 TRCHEK2: N2 convergence failed.
 x:  0.00000  0.01342  0.01342  N:  0.000  9.000    NaN  Nx:     NaN   dN:       NaN
 TRCHEK2: N2 convergence failed.
 x:  0.00000  0.01342  0.01342  N:  0.000  9.000    NaN  Nx:     NaN   dN:       NaN
 TRCHEK2: N2 convergence failed.
 x:  0.00000  0.01342  0.01342  N:  0.000  9.000    NaN  Nx:     NaN   dN:       NaN
 TRCHEK2: N2 convergence failed.
 x:  0.00000  0.01342  0.01342  N:  0.000  9.000    NaN  Nx:     NaN   dN:       NaN
 TRCHEK2: N2 convergence failed.
 x:  0.00000  0.01342  0.01342  N:  0.000  9.000    NaN  Nx:     NaN   dN:       NaN
 TRCHEK2: N2 convergence failed.
 x:  0.00000  0.01342  0.01342  N:  0.000  9.000    NaN  Nx:     NaN   dN:       NaN
 TRCHEK2: N2 convergence failed.
 x:  0.00000  0.01342  0.01342  N:  0.000  9.000    NaN  Nx:     NaN   dN:       NaN
 TRCHEK2: N2 convergence failed.
 x:  0.00000  0.01342  0.01342  N:  0.000  9.000    NaN  Nx:     NaN   dN:       NaN
 TRCHEK2: N2 convergence failed.
 x:  0.00000  0.01342  0.01342  N:  0.000  9.000    NaN  Nx:     NaN   dN:       NaN
 TRCHEK2: N2 convergence failed.
 x:  0.00000  0.01342  0.01342  N:  0.000  9.000    NaN  Nx:     NaN   dN:       NaN
 TRCHEK2: N2 convergence failed.
 x:  0.00000  0.01342  0.01342  N:  0.000  9.000    NaN  Nx:     NaN   dN:       NaN
 TRCHEK2: N2 convergence failed.
 x:  0.00000  0.01342  0.01342  N:  0.000  9.000    NaN  Nx:     NaN   dN:       NaN
 TRCHEK2: N2 convergence failed.
 x:  0.00000  0.01342  0.01342  N:  0.000  9.000    NaN  Nx:     NaN   dN:       NaN
 TRCHEK2: N2 convergence failed.
 x:  0.00000  0.01342  0.01342  N:  0.000  9.000    NaN  Nx:     NaN   dN:       NaN
 TRCHEK2: N2 convergence failed.
 x:  0.00000  0.01342  0.01342  N:  0.000  9.000    NaN  Nx:     NaN   dN:       NaN
 TRCHEK2: N2 convergence failed.
 x:  0.00000  0.01342  0.01342  N:  0.000  9.000    NaN  Nx:     NaN   dN:       NaN
 TRCHEK2: N2 convergence failed.
 x:  0.00000  0.01342  0.01342  N:  0.000  9.000    NaN  Nx:     NaN   dN:       NaN
 TRCHEK2: N2 convergence failed.
 x:  0.00000  0.01342  0.01342  N:  0.000  9.000    NaN  Nx:     NaN   dN:       NaN
 TRCHEK2: N2 convergence failed.
 x:  0.00000  0.01342  0.01342  N:  0.000  9.000    NaN  Nx:     NaN   dN:       NaN
 TRCHEK2: N2 convergence failed.
 x:  0.00000  0.01342  0.01342  N:  0.000  9.000    NaN  Nx:     NaN   dN:       NaN
 TRCHEK2: N2 convergence failed.
 x:  0.00000  0.01342  0.01342  N:  0.000  9.000    NaN  Nx:     NaN   dN:       NaN
 MRCHUE: Convergence failed at   3  side 1    Res =         NaN
 TRCHEK2: N2 convergence failed.
 x:  0.00000  0.01342  0.01342  N:  0.000  9.000    NaN  Nx:     NaN   dN:       NaN
 TRCHEK2: N2 convergence failed.
 x:  0.01342  0.03928  0.03928  N:    NaN  9.000    NaN  Nx:     NaN   dN:       NaN
 MRCHUE: Inverse mode at   4     Hk =   3.800
 TRCHEK2: N2 convergence failed.
 x:  0.01342  0.03928  0.03928  N:    NaN  9.000    NaN  Nx:     NaN   dN:       NaN
 TRCHEK2: N2 convergence failed.
 x:  0.01342  0.03928  0.03928  N:    NaN  9.000    NaN  Nx:     NaN   dN:       NaN
 TRCHEK2: N2 convergence failed.
 x:  0.01342  0.03928  0.03928  N:    NaN  9.000    NaN  Nx:     NaN   dN:       NaN
 TRCHEK2: N2 convergence failed.
 x:  0.01342  0.03928  0.03928  N:    NaN  9.000    NaN  Nx:     NaN   dN:       NaN
 TRCHEK2: N2 convergence failed.
 x:  0.01342  0.03928  0.03928  N:    NaN  9.000    NaN  Nx:     NaN   dN:       NaN
 TRCHEK2: N2 convergence failed.
 x:  0.01342  0.03928  0.03928  N:    NaN  9.000    NaN  Nx:     NaN   dN:       NaN
 TRCHEK2: N2 convergence failed.
 x:  0.01342  0.03928  0.03928  N:    NaN  9.000    NaN  Nx:     NaN   dN:       NaN
 TRCHEK2: N2 convergence failed.
 x:  0.01342  0.03928  0.03928  N:    NaN  9.000    NaN  Nx:     NaN   dN:       NaN
 TRCHEK2: N2 convergence failed.
 x:  0.01342  0.03928  0.03928  N:    NaN  9.000    NaN  Nx:     NaN   dN:       NaN
 TRCHEK2: N2 convergence failed.
 x:  0.01342  0.03928  0.03928  N:    NaN  9.000    NaN  Nx:     NaN   dN:       NaN
 TRCHEK2: N2 convergence failed.
 x:  0.01342  0.03928  0.03928  N:    NaN  9.000    NaN  Nx:     NaN   dN:       NaN
 TRCHEK2: N2 convergence failed.
 x:  0.01342  0.03928  0.03928  N:    NaN  9.000    NaN  Nx:     NaN   dN:       NaN
 TRCHEK2: N2 convergence failed.
 x:  0.01342  0.03928  0.03928  N:    NaN  9.000    NaN  Nx:     NaN   dN:       NaN
 TRCHEK2: N2 convergence failed.
 x:  0.01342  0.03928  0.03928  N:    NaN  9.000    NaN  Nx:     NaN   dN:       NaN
 TRCHEK2: N2 convergence failed.
 x:  0.01342  0.03928  0.03928  N:    NaN  9.000    NaN  Nx:     NaN   dN:       NaN
 TRCHEK2: N2 convergence failed.
 x:  0.01342  0.03928  0.03928  N:    NaN  9.000    NaN  Nx:     NaN   dN:       NaN
 TRCHEK2: N2 convergence failed.
 x:  0.01342  0.03928  0.03928  N:    NaN  9.000    NaN  Nx:     NaN   dN:       NaN
 TRCHEK2: N2 convergence failed.
 x:  0.01342  0.03928  0.03928  N:    NaN  9.000    NaN  Nx:     NaN   dN:       NaN
 TRCHEK2: N2 convergence failed.
 x:  0.01342  0.03928  0.03928  N:    NaN  9.000    NaN  Nx:     NaN   dN:       NaN
 TRCHEK2: N2 convergence failed.
 x:  0.01342  0.03928  0.03928  N:    NaN  9.000    NaN  Nx:     NaN   dN:       NaN
 TRCHEK2: N2 convergence failed.
 x:  0.01342  0.03928  0.03928  N:    NaN  9.000    NaN  Nx:     NaN   dN:       NaN
 TRCHEK2: N2 convergence failed.
 x:  0.01342  0.03928  0.03928  N:    NaN  9.000    NaN  Nx:     NaN   dN:       NaN
 TRCHEK2: N2 convergence failed.
 x:  0.01342  0.03928  0.03928  N:    NaN  9.000    NaN  Nx:     NaN   dN:       NaN
 TRCHEK2: N2 convergence failed.
 x:  0.01342  0.03928  0.03928  N:    NaN  9.000    NaN  Nx:     NaN   dN:       NaN
 MRCHUE: Convergence failed at   4  side 1    Res =         NaN
 TRCHEK2: N2 convergence failed.
 x:  0.01342  0.03928  0.03928  N:    NaN  9.000    NaN  Nx:     NaN   dN:       NaN
 TRCHEK2: N2 convergence failed.
 x:  0.03928  0.06475  0.06475  N:    NaN  9.000    NaN  Nx:     NaN   dN:       NaN
 MRCHUE: Inverse mode at   5     Hk =   3.800
 TRCHEK2: N2 convergence failed.
 x:  0.03928  0.06475  0.06475  N:    NaN  9.000    NaN  Nx:     NaN   dN:       NaN
 TRCHEK2: N2 convergence failed.
 x:  0.03928  0.06475  0.06475  N:    NaN  9.000    NaN  Nx:     NaN   dN:       NaN
 TRCHEK2: N2 convergence failed.
 x:  0.03928  0.06475  0.06475  N:    NaN  9.000    NaN  Nx:     NaN   dN:       NaN
 TRCHEK2: N2 convergence failed.
 x:  0.03928  0.06475  0.06475  N:    NaN  9.000    NaN  Nx:     NaN   dN:       NaN
 TRCHEK2: N2 convergence failed.
 x:  0.03928  0.06475  0.06475  N:    NaN  9.000    NaN  Nx:     NaN   dN:       NaN
 TRCHEK2: N2 convergence failed.
 x:  0.03928  0.06475  0.06475  N:    NaN  9.000    NaN  Nx:     NaN   dN:       NaN
 TRCHEK2: N2 convergence failed.
 x:  0.03928  0.06475  0.06475  N:    NaN  9.000    NaN  Nx:     NaN   dN:       NaN
 TRCHEK2: N2 convergence failed.
 x:  0.03928  0.06475  0.06475  N:    NaN  9.000    NaN  Nx:     NaN   dN:       NaN
 TRCHEK2: N2 convergence failed.
 x:  0.03928  0.06475  0.06475  N:    NaN  9.000    NaN  Nx:     NaN   dN:       NaN
 TRCHEK2: N2 convergence failed.
 x:  0.03928  0.06475  0.06475  N:    NaN  9.000    NaN  Nx:     NaN   dN:       NaN
 TRCHEK2: N2 convergence failed.
 x:  0.03928  0.06475  0.06475  N:    NaN  9.000    NaN  Nx:     NaN   dN:       NaN
 TRCHEK2: N2 convergence failed.
 x:  0.03928  0.06475  0.06475  N:    NaN  9.000    NaN  Nx:     NaN   dN:       NaN
 TRCHEK2: N2 convergence failed.
 x:  0.03928  0.06475  0.06475  N:    NaN  9.000    NaN  Nx:     NaN   dN:       NaN
 TRCHEK2: N2 convergence failed.
 x:  0.03928  0.06475  0.06475  N:    NaN  9.000    NaN  Nx:     NaN   dN:       NaN
 TRCHEK2: N2 convergence failed.
 x:  0.03928  0.06475  0.06475  N:    NaN  9.000    NaN  Nx:     NaN   dN:       NaN
 TRCHEK2: N2 convergence failed.
 x:  0.03928  0.06475  0.06475  N:    NaN  9.000    NaN  Nx:     NaN   dN:       NaN
 TRCHEK2: N2 convergence failed.
 x:  0.03928  0.06475  0.06475  N:    NaN  9.000    NaN  Nx:     NaN   dN:       NaN
 TRCHEK2: N2 convergence failed.
 x:  0.03928  0.06475  0.06475  N:    NaN  9.000    NaN  Nx:     NaN   dN:       NaN
 TRCHEK2: N2 convergence failed.
 x:  0.03928  0.06475  0.06475  N:    NaN  9.000    NaN  Nx:     NaN   dN:       NaN
 TRCHEK2: N2 convergence failed.
 x:  0.03928  0.06475  0.06475  N:    NaN  9.000    NaN  Nx:     NaN   dN:       NaN
 TRCHEK2: N2 convergence failed.
 x:  0.03928  0.06475  0.06475  N:    NaN  9.000    NaN  Nx:     NaN   dN:       NaN
 TRCHEK2: N2 convergence failed.
 x:  0.03928  0.06475  0.06475  N:    NaN  9.000    NaN  Nx:     NaN   dN:       NaN
 TRCHEK2: N2 convergence failed.
 x:  0.03928  0.06475  0.06475  N:    NaN  9.000    NaN  Nx:     NaN   dN:       NaN
 TRCHEK2: N2 convergence failed.
 x:  0.03928  0.06475  0.06475  N:    NaN  9.000    NaN  Nx:     NaN   dN:       NaN
 MRCHUE: Convergence failed at   5  side 1    Res =         NaN
 TRCHEK2: N2 convergence failed.
 x:  0.03928  0.06475  0.06475  N:    NaN  9.000    NaN  Nx:     NaN   dN:       NaN
 TRCHEK2: N2 convergence failed.
 x:  0.06475  0.09007  0.09007  N:    NaN  9.000    NaN  Nx:     NaN   dN:       NaN
 MRCHUE: Inverse mode at   6     Hk =   3.800
 TRCHEK2: N2 convergence failed.
 x:  0.06475  0.09007  0.09007  N:    NaN  9.000    NaN  Nx:     NaN   dN:       NaN
 TRCHEK2: N2 convergence failed.
 x:  0.06475  0.09007  0.09007  N:    NaN  9.000    NaN  Nx:     NaN   dN:       NaN
 TRCHEK2: N2 convergence failed.
 x:  0.06475  0.09007  0.09007  N:    NaN  9.000    NaN  Nx:     NaN   dN:       NaN
 TRCHEK2: N2 convergence failed.
 x:  0.06475  0.09007  0.09007  N:    NaN  9.000    NaN  Nx:     NaN   dN:       NaN
 TRCHEK2: N2 convergence failed.
 x:  0.06475  0.09007  0.09007  N:    NaN  9.000    NaN  Nx:     NaN   dN:       NaN
 TRCHEK2: N2 convergence failed.
 x:  0.06475  0.09007  0.09007  N:    NaN  9.000    NaN  Nx:     NaN   dN:       NaN
 TRCHEK2: N2 convergence failed.
 x:  0.06475  0.09007  0.09007  N:    NaN  9.000    NaN  Nx:     NaN   dN:       NaN
 TRCHEK2: N2 convergence failed.
 x:  0.06475  0.09007  0.09007  N:    NaN  9.000    NaN  Nx:     NaN   dN:       NaN
 TRCHEK2: N2 convergence failed.
 x:  0.06475  0.09007  0.09007  N:    NaN  9.000    NaN  Nx:     NaN   dN:       NaN
 TRCHEK2: N2 convergence failed.
 x:  0.06475  0.09007  0.09007  N:    NaN  9.000    NaN  Nx:     NaN   dN:       NaN
 TRCHEK2: N2 convergence failed.
 x:  0.06475  0.09007  0.09007  N:    NaN  9.000    NaN  Nx:     NaN   dN:       NaN
 TRCHEK2: N2 convergence failed.
 x:  0.06475  0.09007  0.09007  N:    NaN  9.000    NaN  Nx:     NaN   dN:       NaN
 TRCHEK2: N2 convergence failed.
 x:  0.06475  0.09007  0.09007  N:    NaN  9.000    NaN  Nx:     NaN   dN:       NaN
 TRCHEK2: N2 convergence failed.
 x:  0.06475  0.09007  0.09007  N:    NaN  9.000    NaN  Nx:     NaN   dN:       NaN
 TRCHEK2: N2 convergence failed.
 x:  0.06475  0.09007  0.09007  N:    NaN  9.000    NaN  Nx:     NaN   dN:       NaN
 TRCHEK2: N2 convergence failed.
 x:  0.06475  0.09007  0.09007  N:    NaN  9.000    NaN  Nx:     NaN   dN:       NaN
 TRCHEK2: N2 convergence failed.
 x:  0.06475  0.09007  0.09007  N:    NaN  9.000    NaN  Nx:     NaN   dN:       NaN
 TRCHEK2: N2 convergence failed.
 x:  0.06475  0.09007  0.09007  N:    NaN  9.000    NaN  Nx:     NaN   dN:       NaN
 TRCHEK2: N2 convergence failed.
 x:  0.06475  0.09007  0.09007  N:    NaN  9.000    NaN  Nx:     NaN   dN:       NaN
 TRCHEK2: N2 convergence failed.
 x:  0.06475  0.09007  0.09007  N:    NaN  9.000    NaN  Nx:     NaN   dN:       NaN
 TRCHEK2: N2 convergence failed.
 x:  0.06475  0.09007  0.09007  N:    NaN  9.000    NaN  Nx:     NaN   dN:       NaN
 TRCHEK2: N2 convergence failed.
 x:  0.06475  0.09007  0.09007  N:    NaN  9.000    NaN  Nx:     NaN   dN:       NaN
 TRCHEK2: N2 convergence failed.
 x:  0.06475  0.09007  0.09007  N:    NaN  9.000    NaN  Nx:     NaN   dN:       NaN
 TRCHEK2: N2 convergence failed.
 x:  0.06475  0.09007  0.09007  N:    NaN  9.000    NaN  Nx:     NaN   dN:       NaN
 MRCHUE: Convergence failed at   6  side 1    Res =         NaN
 TRCHEK2: N2 convergence failed.
 x:  0.06475  0.09007  0.09007  N:    NaN  9.000    NaN  Nx:     NaN   dN:       NaN
 TRCHEK2: N2 convergence failed.
 x:  0.09007  0.14050  0.14050  N:    NaN  9.000    NaN  Nx:     NaN   dN:       NaN
 MRCHUE: Inverse mode at   7     Hk =   3.800
 TRCHEK2: N2 convergence failed.
 x:  0.09007  0.14050  0.14050  N:    NaN  9.000    NaN  Nx:     NaN   dN:       NaN
 TRCHEK2: N2 convergence failed.
 x:  0.09007  0.14050  0.14050  N:    NaN  9.000    NaN  Nx:     NaN   dN:       NaN
 TRCHEK2: N2 convergence failed.
 x:  0.09007  0.14050  0.14050  N:    NaN  9.000    NaN  Nx:     NaN   dN:       NaN
 TRCHEK2: N2 convergence failed.
 x:  0.09007  0.14050  0.14050  N:    NaN  9.000    NaN  Nx:     NaN   dN:       NaN
 TRCHEK2: N2 convergence failed.
 x:  0.09007  0.14050  0.14050  N:    NaN  9.000    NaN  Nx:     NaN   dN:       NaN
 TRCHEK2: N2 convergence failed.
 x:  0.09007  0.14050  0.14050  N:    NaN  9.000    NaN  Nx:     NaN   dN:       NaN
 TRCHEK2: N2 convergence failed.
 x:  0.09007  0.14050  0.14050  N:    NaN  9.000    NaN  Nx:     NaN   dN:       NaN
 TRCHEK2: N2 convergence failed.
 x:  0.09007  0.14050  0.14050  N:    NaN  9.000    NaN  Nx:     NaN   dN:       NaN
 TRCHEK2: N2 convergence failed.
 x:  0.09007  0.14050  0.14050  N:    NaN  9.000    NaN  Nx:     NaN   dN:       NaN
 TRCHEK2: N2 convergence failed.
 x:  0.09007  0.14050  0.14050  N:    NaN  9.000    NaN  Nx:     NaN   dN:       NaN
 TRCHEK2: N2 convergence failed.
 x:  0.09007  0.14050  0.14050  N:    NaN  9.000    NaN  Nx:     NaN   dN:       NaN
 TRCHEK2: N2 convergence failed.
 x:  0.09007  0.14050  0.14050  N:    NaN  9.000    NaN  Nx:     NaN   dN:       NaN
 TRCHEK2: N2 convergence failed.
 x:  0.09007  0.14050  0.14050  N:    NaN  9.000    NaN  Nx:     NaN   dN:       NaN
 TRCHEK2: N2 convergence failed.
 x:  0.09007  0.14050  0.14050  N:    NaN  9.000    NaN  Nx:     NaN   dN:       NaN
 TRCHEK2: N2 convergence failed.
 x:  0.09007  0.14050  0.14050  N:    NaN  9.000    NaN  Nx:     NaN   dN:       NaN
 TRCHEK2: N2 convergence failed.
 x:  0.09007  0.14050  0.14050  N:    NaN  9.000    NaN  Nx:     NaN   dN:       NaN
 TRCHEK2: N2 convergence failed.
 x:  0.09007  0.14050  0.14050  N:    NaN  9.000    NaN  Nx:     NaN   dN:       NaN
 TRCHEK2: N2 convergence failed.
 x:  0.09007  0.14050  0.14050  N:    NaN  9.000    NaN  Nx:     NaN   dN:       NaN
 TRCHEK2: N2 convergence failed.
 x:  0.09007  0.14050  0.14050  N:    NaN  9.000    NaN  Nx:     NaN   dN:       NaN
 TRCHEK2: N2 convergence failed.
 x:  0.09007  0.14050  0.14050  N:    NaN  9.000    NaN  Nx:     NaN   dN:       NaN
 TRCHEK2: N2 convergence failed.
 x:  0.09007  0.14050  0.14050  N:    NaN  9.000    NaN  Nx:     NaN   dN:       NaN
 TRCHEK2: N2 convergence failed.
 x:  0.09007  0.14050  0.14050  N:    NaN  9.000    NaN  Nx:     NaN   dN:       NaN
 TRCHEK2: N2 convergence failed.
 x:  0.09007  0.14050  0.14050  N:    NaN  9.000    NaN  Nx:     NaN   dN:       NaN
 TRCHEK2: N2 convergence failed.
 x:  0.09007  0.14050  0.14050  N:    NaN  9.000    NaN  Nx:     NaN   dN:       NaN
 MRCHUE: Convergence failed at   7  side 1    Res =         NaN
 TRCHEK2: N2 convergence failed.
 x:  0.09007  0.14050  0.14050  N:    NaN  9.000    NaN  Nx:     NaN   dN:       NaN
 TRCHEK2: N2 convergence failed.
 x:  0.14050  0.19081  0.19081  N:    NaN  9.000    NaN  Nx:     NaN   dN:       NaN
 MRCHUE: Inverse mode at   8     Hk =   3.800
 TRCHEK2: N2 convergence failed.
 x:  0.14050  0.19081  0.19081  N:    NaN  9.000    NaN  Nx:     NaN   dN:       NaN
 TRCHEK2: N2 convergence failed.
 x:  0.14050  0.19081  0.19081  N:    NaN  9.000    NaN  Nx:     NaN   dN:       NaN
 TRCHEK2: N2 convergence failed.
 x:  0.14050  0.19081  0.19081  N:    NaN  9.000    NaN  Nx:     NaN   dN:       NaN
 TRCHEK2: N2 convergence failed.
 x:  0.14050  0.19081  0.19081  N:    NaN  9.000    NaN  Nx:     NaN   dN:       NaN
 TRCHEK2: N2 convergence failed.
 x:  0.14050  0.19081  0.19081  N:    NaN  9.000    NaN  Nx:     NaN   dN:       NaN
 TRCHEK2: N2 convergence failed.
 x:  0.14050  0.19081  0.19081  N:    NaN  9.000    NaN  Nx:     NaN   dN:       NaN
 TRCHEK2: N2 convergence failed.
 x:  0.14050  0.19081  0.19081  N:    NaN  9.000    NaN  Nx:     NaN   dN:       NaN
 TRCHEK2: N2 convergence failed.
 x:  0.14050  0.19081  0.19081  N:    NaN  9.000    NaN  Nx:     NaN   dN:       NaN
 TRCHEK2: N2 convergence failed.
 x:  0.14050  0.19081  0.19081  N:    NaN  9.000    NaN  Nx:     NaN   dN:       NaN
 TRCHEK2: N2 convergence failed.
 x:  0.14050  0.19081  0.19081  N:    NaN  9.000    NaN  Nx:     NaN   dN:       NaN
 TRCHEK2: N2 convergence failed.
 x:  0.14050  0.19081  0.19081  N:    NaN  9.000    NaN  Nx:     NaN   dN:       NaN
 TRCHEK2: N2 convergence failed.
 x:  0.14050  0.19081  0.19081  N:    NaN  9.000    NaN  Nx:     NaN   dN:       NaN
 TRCHEK2: N2 convergence failed.
 x:  0.14050  0.19081  0.19081  N:    NaN  9.000    NaN  Nx:     NaN   dN:       NaN
 TRCHEK2: N2 convergence failed.
 x:  0.14050  0.19081  0.19081  N:    NaN  9.000    NaN  Nx:     NaN   dN:       NaN
 TRCHEK2: N2 convergence failed.
 x:  0.14050  0.19081  0.19081  N:    NaN  9.000    NaN  Nx:     NaN   dN:       NaN
 TRCHEK2: N2 convergence failed.
 x:  0.14050  0.19081  0.19081  N:    NaN  9.000    NaN  Nx:     NaN   dN:       NaN
 TRCHEK2: N2 convergence failed.
 x:  0.14050  0.19081  0.19081  N:    NaN  9.000    NaN  Nx:     NaN   dN:       NaN
 TRCHEK2: N2 convergence failed.
 x:  0.14050  0.19081  0.19081  N:    NaN  9.000    NaN  Nx:     NaN   dN:       NaN
 TRCHEK2: N2 convergence failed.
 x:  0.14050  0.19081  0.19081  N:    NaN  9.000    NaN  Nx:     NaN   dN:       NaN
 TRCHEK2: N2 convergence failed.
 x:  0.14050  0.19081  0.19081  N:    NaN  9.000    NaN  Nx:     NaN   dN:       NaN
 TRCHEK2: N2 convergence failed.
 x:  0.14050  0.19081  0.19081  N:    NaN  9.000    NaN  Nx:     NaN   dN:       NaN
 TRCHEK2: N2 convergence failed.
 x:  0.14050  0.19081  0.19081  N:    NaN  9.000    NaN  Nx:     NaN   dN:       NaN
 TRCHEK2: N2 convergence failed.
 x:  0.14050  0.19081  0.19081  N:    NaN  9.000    NaN  Nx:     NaN   dN:       NaN
 TRCHEK2: N2 convergence failed.
 x:  0.14050  0.19081  0.19081  N:    NaN  9.000    NaN  Nx:     NaN   dN:       NaN
 MRCHUE: Convergence failed at   8  side 1    Res =         NaN
 TRCHEK2: N2 convergence failed.
 x:  0.14050  0.19081  0.19081  N:    NaN  9.000    NaN  Nx:     NaN   dN:       NaN
 TRCHEK2: N2 convergence failed.
 x:  0.19081  0.24109  0.24109  N:    NaN  9.000    NaN  Nx:     NaN   dN:       NaN
 MRCHUE: Inverse mode at   9     Hk =   3.800
 TRCHEK2: N2 convergence failed.
 x:  0.19081  0.24109  0.24109  N:    NaN  9.000    NaN  Nx:     NaN   dN:       NaN
 TRCHEK2: N2 convergence failed.
 x:  0.19081  0.24109  0.24109  N:    NaN  9.000    NaN  Nx:     NaN   dN:       NaN
 TRCHEK2: N2 convergence failed.
 x:  0.19081  0.24109  0.24109  N:    NaN  9.000    NaN  Nx:     NaN   dN:       NaN
 TRCHEK2: N2 convergence failed.
 x:  0.19081  0.24109  0.24109  N:    NaN  9.000    NaN  Nx:     NaN   dN:       NaN
 TRCHEK2: N2 convergence failed.
 x:  0.19081  0.24109  0.24109  N:    NaN  9.000    NaN  Nx:     NaN   dN:       NaN
 TRCHEK2: N2 convergence failed.
 x:  0.19081  0.24109  0.24109  N:    NaN  9.000    NaN  Nx:     NaN   dN:       NaN
 TRCHEK2: N2 convergence failed.
 x:  0.19081  0.24109  0.24109  N:    NaN  9.000    NaN  Nx:     NaN   dN:       NaN
 TRCHEK2: N2 convergence failed.
 x:  0.19081  0.24109  0.24109  N:    NaN  9.000    NaN  Nx:     NaN   dN:       NaN
 TRCHEK2: N2 convergence failed.
 x:  0.19081  0.24109  0.24109  N:    NaN  9.000    NaN  Nx:     NaN   dN:       NaN
 TRCHEK2: N2 convergence failed.
 x:  0.19081  0.24109  0.24109  N:    NaN  9.000    NaN  Nx:     NaN   dN:       NaN
 TRCHEK2: N2 convergence failed.
 x:  0.19081  0.24109  0.24109  N:    NaN  9.000    NaN  Nx:     NaN   dN:       NaN
 TRCHEK2: N2 convergence failed.
 x:  0.19081  0.24109  0.24109  N:    NaN  9.000    NaN  Nx:     NaN   dN:       NaN
 TRCHEK2: N2 convergence failed.
 x:  0.19081  0.24109  0.24109  N:    NaN  9.000    NaN  Nx:     NaN   dN:       NaN
 TRCHEK2: N2 convergence failed.
 x:  0.19081  0.24109  0.24109  N:    NaN  9.000    NaN  Nx:     NaN   dN:       NaN
 TRCHEK2: N2 convergence failed.
 x:  0.19081  0.24109  0.24109  N:    NaN  9.000    NaN  Nx:     NaN   dN:       NaN
 TRCHEK2: N2 convergence failed.
 x:  0.19081  0.24109  0.24109  N:    NaN  9.000    NaN  Nx:     NaN   dN:       NaN
 TRCHEK2: N2 convergence failed.
 x:  0.19081  0.24109  0.24109  N:    NaN  9.000    NaN  Nx:     NaN   dN:       NaN
 TRCHEK2: N2 convergence failed.
 x:  0.19081  0.24109  0.24109  N:    NaN  9.000    NaN  Nx:     NaN   dN:       NaN
 TRCHEK2: N2 convergence failed.
 x:  0.19081  0.24109  0.24109  N:    NaN  9.000    NaN  Nx:     NaN   dN:       NaN
 TRCHEK2: N2 convergence failed.
 x:  0.19081  0.24109  0.24109  N:    NaN  9.000    NaN  Nx:     NaN   dN:       NaN
 TRCHEK2: N2 convergence failed.
 x:  0.19081  0.24109  0.24109  N:    NaN  9.000    NaN  Nx:     NaN   dN:       NaN
 TRCHEK2: N2 convergence failed.
 x:  0.19081  0.24109  0.24109  N:    NaN  9.000    NaN  Nx:     NaN   dN:       NaN
 TRCHEK2: N2 convergence failed.
 x:  0.19081  0.24109  0.24109  N:    NaN  9.000    NaN  Nx:     NaN   dN:       NaN
 TRCHEK2: N2 convergence failed.
 x:  0.19081  0.24109  0.24109  N:    NaN  9.000    NaN  Nx:     NaN   dN:       NaN
 MRCHUE: Convergence failed at   9  side 1    Res =         NaN
 TRCHEK2: N2 convergence failed.
 x:  0.19081  0.24109  0.24109  N:    NaN  9.000    NaN  Nx:     NaN   dN:       NaN
 TRCHEK2: N2 convergence failed.
 x:  0.24109  0.29135  0.29135  N:    NaN  9.000    NaN  Nx:     NaN   dN:       NaN
 MRCHUE: Inverse mode at  10     Hk =   3.800
 TRCHEK2: N2 convergence failed.
 x:  0.24109  0.29135  0.29135  N:    NaN  9.000    NaN  Nx:     NaN   dN:       NaN
 TRCHEK2: N2 convergence failed.
 x:  0.24109  0.29135  0.29135  N:    NaN  9.000    NaN  Nx:     NaN   dN:       NaN
 TRCHEK2: N2 convergence failed.
 x:  0.24109  0.29135  0.29135  N:    NaN  9.000    NaN  Nx:     NaN   dN:       NaN
 TRCHEK2: N2 convergence failed.
 x:  0.24109  0.29135  0.29135  N:    NaN  9.000    NaN  Nx:     NaN   dN:       NaN
 TRCHEK2: N2 convergence failed.
 x:  0.24109  0.29135  0.29135  N:    NaN  9.000    NaN  Nx:     NaN   dN:       NaN
 TRCHEK2: N2 convergence failed.
 x:  0.24109  0.29135  0.29135  N:    NaN  9.000    NaN  Nx:     NaN   dN:       NaN
 TRCHEK2: N2 convergence failed.
 x:  0.24109  0.29135  0.29135  N:    NaN  9.000    NaN  Nx:     NaN   dN:       NaN
 TRCHEK2: N2 convergence failed.
 x:  0.24109  0.29135  0.29135  N:    NaN  9.000    NaN  Nx:     NaN   dN:       NaN
 TRCHEK2: N2 convergence failed.
 x:  0.24109  0.29135  0.29135  N:    NaN  9.000    NaN  Nx:     NaN   dN:       NaN
 TRCHEK2: N2 convergence failed.
 x:  0.24109  0.29135  0.29135  N:    NaN  9.000    NaN  Nx:     NaN   dN:       NaN
 TRCHEK2: N2 convergence failed.
 x:  0.24109  0.29135  0.29135  N:    NaN  9.000    NaN  Nx:     NaN   dN:       NaN
 TRCHEK2: N2 convergence failed.
 x:  0.24109  0.29135  0.29135  N:    NaN  9.000    NaN  Nx:     NaN   dN:       NaN
 TRCHEK2: N2 convergence failed.
 x:  0.24109  0.29135  0.29135  N:    NaN  9.000    NaN  Nx:     NaN   dN:       NaN
 TRCHEK2: N2 convergence failed.
 x:  0.24109  0.29135  0.29135  N:    NaN  9.000    NaN  Nx:     NaN   dN:       NaN
 TRCHEK2: N2 convergence failed.
 x:  0.24109  0.29135  0.29135  N:    NaN  9.000    NaN  Nx:     NaN   dN:       NaN
 TRCHEK2: N2 convergence failed.
 x:  0.24109  0.29135  0.29135  N:    NaN  9.000    NaN  Nx:     NaN   dN:       NaN
 TRCHEK2: N2 convergence failed.
 x:  0.24109  0.29135  0.29135  N:    NaN  9.000    NaN  Nx:     NaN   dN:       NaN
 TRCHEK2: N2 convergence failed.
 x:  0.24109  0.29135  0.29135  N:    NaN  9.000    NaN  Nx:     NaN   dN:       NaN
 TRCHEK2: N2 convergence failed.
 x:  0.24109  0.29135  0.29135  N:    NaN  9.000    NaN  Nx:     NaN   dN:       NaN
 TRCHEK2: N2 convergence failed.
 x:  0.24109  0.29135  0.29135  N:    NaN  9.000    NaN  Nx:     NaN   dN:       NaN
 TRCHEK2: N2 convergence failed.
 x:  0.24109  0.29135  0.29135  N:    NaN  9.000    NaN  Nx:     NaN   dN:       NaN
 TRCHEK2: N2 convergence failed.
 x:  0.24109  0.29135  0.29135  N:    NaN  9.000    NaN  Nx:     NaN   dN:       NaN
 TRCHEK2: N2 convergence failed.
 x:  0.24109  0.29135  0.29135  N:    NaN  9.000    NaN  Nx:     NaN   dN:       NaN
 TRCHEK2: N2 convergence failed.
 x:  0.24109  0.29135  0.29135  N:    NaN  9.000    NaN  Nx:     NaN   dN:       NaN
 MRCHUE: Convergence failed at  10  side 1    Res =         NaN
 TRCHEK2: N2 convergence failed.
 x:  0.24109  0.29135  0.29135  N:    NaN  9.000    NaN  Nx:     NaN   dN:       NaN
 TRCHEK2: N2 convergence failed.
 x:  0.29135  0.39185  0.39185  N:    NaN  9.000    NaN  Nx:     NaN   dN:       NaN
 MRCHUE: Inverse mode at  11     Hk =   3.800
 TRCHEK2: N2 convergence failed.
 x:  0.29135  0.39185  0.39185  N:    NaN  9.000    NaN  Nx:     NaN   dN:       NaN
 TRCHEK2: N2 convergence failed.
 x:  0.29135  0.39185  0.39185  N:    NaN  9.000    NaN  Nx:     NaN   dN:       NaN
 TRCHEK2: N2 convergence failed.
 x:  0.29135  0.39185  0.39185  N:    NaN  9.000    NaN  Nx:     NaN   dN:       NaN
 TRCHEK2: N2 convergence failed.
 x:  0.29135  0.39185  0.39185  N:    NaN  9.000    NaN  Nx:     NaN   dN:       NaN
 TRCHEK2: N2 convergence failed.
 x:  0.29135  0.39185  0.39185  N:    NaN  9.000    NaN  Nx:     NaN   dN:       NaN
 TRCHEK2: N2 convergence failed.
 x:  0.29135  0.39185  0.39185  N:    NaN  9.000    NaN  Nx:     NaN   dN:       NaN
 TRCHEK2: N2 convergence failed.
 x:  0.29135  0.39185  0.39185  N:    NaN  9.000    NaN  Nx:     NaN   dN:       NaN
 TRCHEK2: N2 convergence failed.
 x:  0.29135  0.39185  0.39185  N:    NaN  9.000    NaN  Nx:     NaN   dN:       NaN
 TRCHEK2: N2 convergence failed.
 x:  0.29135  0.39185  0.39185  N:    NaN  9.000    NaN  Nx:     NaN   dN:       NaN
 TRCHEK2: N2 convergence failed.
 x:  0.29135  0.39185  0.39185  N:    NaN  9.000    NaN  Nx:     NaN   dN:       NaN
 TRCHEK2: N2 convergence failed.
 x:  0.29135  0.39185  0.39185  N:    NaN  9.000    NaN  Nx:     NaN   dN:       NaN
 TRCHEK2: N2 convergence failed.
 x:  0.29135  0.39185  0.39185  N:    NaN  9.000    NaN  Nx:     NaN   dN:       NaN
 TRCHEK2: N2 convergence failed.
 x:  0.29135  0.39185  0.39185  N:    NaN  9.000    NaN  Nx:     NaN   dN:       NaN
 TRCHEK2: N2 convergence failed.
 x:  0.29135  0.39185  0.39185  N:    NaN  9.000    NaN  Nx:     NaN   dN:       NaN
 TRCHEK2: N2 convergence failed.
 x:  0.29135  0.39185  0.39185  N:    NaN  9.000    NaN  Nx:     NaN   dN:       NaN
 TRCHEK2: N2 convergence failed.
 x:  0.29135  0.39185  0.39185  N:    NaN  9.000    NaN  Nx:     NaN   dN:       NaN
 TRCHEK2: N2 convergence failed.
 x:  0.29135  0.39185  0.39185  N:    NaN  9.000    NaN  Nx:     NaN   dN:       NaN
 TRCHEK2: N2 convergence failed.
 x:  0.29135  0.39185  0.39185  N:    NaN  9.000    NaN  Nx:     NaN   dN:       NaN
 TRCHEK2: N2 convergence failed.
 x:  0.29135  0.39185  0.39185  N:    NaN  9.000    NaN  Nx:     NaN   dN:       NaN
 TRCHEK2: N2 convergence failed.
 x:  0.29135  0.39185  0.39185  N:    NaN  9.000    NaN  Nx:     NaN   dN:       NaN
 TRCHEK2: N2 convergence failed.
 x:  0.29135  0.39185  0.39185  N:    NaN  9.000    NaN  Nx:     NaN   dN:       NaN
 TRCHEK2: N2 convergence failed.
 x:  0.29135  0.39185  0.39185  N:    NaN  9.000    NaN  Nx:     NaN   dN:       NaN
 TRCHEK2: N2 convergence failed.
 x:  0.29135  0.39185  0.39185  N:    NaN  9.000    NaN  Nx:     NaN   dN:       NaN
 TRCHEK2: N2 convergence failed.
 x:  0.29135  0.39185  0.39185  N:    NaN  9.000    NaN  Nx:     NaN   dN:       NaN
 MRCHUE: Convergence failed at  11  side 1    Res =         NaN
 TRCHEK2: N2 convergence failed.
 x:  0.29135  0.39185  0.39185  N:    NaN  9.000    NaN  Nx:     NaN   dN:       NaN
 TRCHEK2: N2 convergence failed.
 x:  0.39185  0.49212  0.49212  N:    NaN  9.000    NaN  Nx:     NaN   dN:       NaN
 MRCHUE: Inverse mode at  12     Hk =   3.800
 TRCHEK2: N2 convergence failed.
 x:  0.39185  0.49212  0.49212  N:    NaN  9.000    NaN  Nx:     NaN   dN:       NaN
 TRCHEK2: N2 convergence failed.
 x:  0.39185  0.49212  0.49212  N:    NaN  9.000    NaN  Nx:     NaN   dN:       NaN
 TRCHEK2: N2 convergence failed.
 x:  0.39185  0.49212  0.49212  N:    NaN  9.000    NaN  Nx:     NaN   dN:       NaN
 TRCHEK2: N2 convergence failed.
 x:  0.39185  0.49212  0.49212  N:    NaN  9.000    NaN  Nx:     NaN   dN:       NaN
 TRCHEK2: N2 convergence failed.
 x:  0.39185  0.49212  0.49212  N:    NaN  9.000    NaN  Nx:     NaN   dN:       NaN
 TRCHEK2: N2 convergence failed.
 x:  0.39185  0.49212  0.49212  N:    NaN  9.000    NaN  Nx:     NaN   dN:       NaN
 TRCHEK2: N2 convergence failed.
 x:  0.39185  0.49212  0.49212  N:    NaN  9.000    NaN  Nx:     NaN   dN:       NaN
 TRCHEK2: N2 convergence failed.
 x:  0.39185  0.49212  0.49212  N:    NaN  9.000    NaN  Nx:     NaN   dN:       NaN
 TRCHEK2: N2 convergence failed.
 x:  0.39185  0.49212  0.49212  N:    NaN  9.000    NaN  Nx:     NaN   dN:       NaN
 TRCHEK2: N2 convergence failed.
 x:  0.39185  0.49212  0.49212  N:    NaN  9.000    NaN  Nx:     NaN   dN:       NaN
 TRCHEK2: N2 convergence failed.
 x:  0.39185  0.49212  0.49212  N:    NaN  9.000    NaN  Nx:     NaN   dN:       NaN
 TRCHEK2: N2 convergence failed.
 x:  0.39185  0.49212  0.49212  N:    NaN  9.000    NaN  Nx:     NaN   dN:       NaN
 TRCHEK2: N2 convergence failed.
 x:  0.39185  0.49212  0.49212  N:    NaN  9.000    NaN  Nx:     NaN   dN:       NaN
 TRCHEK2: N2 convergence failed.
 x:  0.39185  0.49212  0.49212  N:    NaN  9.000    NaN  Nx:     NaN   dN:       NaN
 TRCHEK2: N2 convergence failed.
 x:  0.39185  0.49212  0.49212  N:    NaN  9.000    NaN  Nx:     NaN   dN:       NaN
 TRCHEK2: N2 convergence failed.
 x:  0.39185  0.49212  0.49212  N:    NaN  9.000    NaN  Nx:     NaN   dN:       NaN
 TRCHEK2: N2 convergence failed.
 x:  0.39185  0.49212  0.49212  N:    NaN  9.000    NaN  Nx:     NaN   dN:       NaN
 TRCHEK2: N2 convergence failed.
 x:  0.39185  0.49212  0.49212  N:    NaN  9.000    NaN  Nx:     NaN   dN:       NaN
 TRCHEK2: N2 convergence failed.
 x:  0.39185  0.49212  0.49212  N:    NaN  9.000    NaN  Nx:     NaN   dN:       NaN
 TRCHEK2: N2 convergence failed.
 x:  0.39185  0.49212  0.49212  N:    NaN  9.000    NaN  Nx:     NaN   dN:       NaN
 TRCHEK2: N2 convergence failed.
 x:  0.39185  0.49212  0.49212  N:    NaN  9.000    NaN  Nx:     NaN   dN:       NaN
 TRCHEK2: N2 convergence failed.
 x:  0.39185  0.49212  0.49212  N:    NaN  9.000    NaN  Nx:     NaN   dN:       NaN
 TRCHEK2: N2 convergence failed.
 x:  0.39185  0.49212  0.49212  N:    NaN  9.000    NaN  Nx:     NaN   dN:       NaN
 TRCHEK2: N2 convergence failed.
 x:  0.39185  0.49212  0.49212  N:    NaN  9.000    NaN  Nx:     NaN   dN:       NaN
 MRCHUE: Convergence failed at  12  side 1    Res =         NaN
 TRCHEK2: N2 convergence failed.
 x:  0.39185  0.49212  0.49212  N:    NaN  9.000    NaN  Nx:     NaN   dN:       NaN
 TRCHEK2: N2 convergence failed.
 x:  0.49212  0.59242  0.59242  N:    NaN  9.000    NaN  Nx:     NaN   dN:       NaN
 MRCHUE: Inverse mode at  13     Hk =   3.800
 TRCHEK2: N2 convergence failed.
 x:  0.49212  0.59242  0.59242  N:    NaN  9.000    NaN  Nx:     NaN   dN:       NaN
 TRCHEK2: N2 convergence failed.
 x:  0.49212  0.59242  0.59242  N:    NaN  9.000    NaN  Nx:     NaN   dN:       NaN
 TRCHEK2: N2 convergence failed.
 x:  0.49212  0.59242  0.59242  N:    NaN  9.000    NaN  Nx:     NaN   dN:       NaN
 TRCHEK2: N2 convergence failed.
 x:  0.49212  0.59242  0.59242  N:    NaN  9.000    NaN  Nx:     NaN   dN:       NaN
 TRCHEK2: N2 convergence failed.
 x:  0.49212  0.59242  0.59242  N:    NaN  9.000    NaN  Nx:     NaN   dN:       NaN
 TRCHEK2: N2 convergence failed.
 x:  0.49212  0.59242  0.59242  N:    NaN  9.000    NaN  Nx:     NaN   dN:       NaN
 TRCHEK2: N2 convergence failed.
 x:  0.49212  0.59242  0.59242  N:    NaN  9.000    NaN  Nx:     NaN   dN:       NaN
 TRCHEK2: N2 convergence failed.
 x:  0.49212  0.59242  0.59242  N:    NaN  9.000    NaN  Nx:     NaN   dN:       NaN
 TRCHEK2: N2 convergence failed.
 x:  0.49212  0.59242  0.59242  N:    NaN  9.000    NaN  Nx:     NaN   dN:       NaN
 TRCHEK2: N2 convergence failed.
 x:  0.49212  0.59242  0.59242  N:    NaN  9.000    NaN  Nx:     NaN   dN:       NaN
 TRCHEK2: N2 convergence failed.
 x:  0.49212  0.59242  0.59242  N:    NaN  9.000    NaN  Nx:     NaN   dN:       NaN
 TRCHEK2: N2 convergence failed.
 x:  0.49212  0.59242  0.59242  N:    NaN  9.000    NaN  Nx:     NaN   dN:       NaN
 TRCHEK2: N2 convergence failed.
 x:  0.49212  0.59242  0.59242  N:    NaN  9.000    NaN  Nx:     NaN   dN:       NaN
 TRCHEK2: N2 convergence failed.
 x:  0.49212  0.59242  0.59242  N:    NaN  9.000    NaN  Nx:     NaN   dN:       NaN
 TRCHEK2: N2 convergence failed.
 x:  0.49212  0.59242  0.59242  N:    NaN  9.000    NaN  Nx:     NaN   dN:       NaN
 TRCHEK2: N2 convergence failed.
 x:  0.49212  0.59242  0.59242  N:    NaN  9.000    NaN  Nx:     NaN   dN:       NaN
 TRCHEK2: N2 convergence failed.
 x:  0.49212  0.59242  0.59242  N:    NaN  9.000    NaN  Nx:     NaN   dN:       NaN
 TRCHEK2: N2 convergence failed.
 x:  0.49212  0.59242  0.59242  N:    NaN  9.000    NaN  Nx:     NaN   dN:       NaN
 TRCHEK2: N2 convergence failed.
 x:  0.49212  0.59242  0.59242  N:    NaN  9.000    NaN  Nx:     NaN   dN:       NaN
 TRCHEK2: N2 convergence failed.
 x:  0.49212  0.59242  0.59242  N:    NaN  9.000    NaN  Nx:     NaN   dN:       NaN
 TRCHEK2: N2 convergence failed.
 x:  0.49212  0.59242  0.59242  N:    NaN  9.000    NaN  Nx:     NaN   dN:       NaN
 TRCHEK2: N2 convergence failed.
 x:  0.49212  0.59242  0.59242  N:    NaN  9.000    NaN  Nx:     NaN   dN:       NaN
 TRCHEK2: N2 convergence failed.
 x:  0.49212  0.59242  0.59242  N:    NaN  9.000    NaN  Nx:     NaN   dN:       NaN
 TRCHEK2: N2 convergence failed.
 x:  0.49212  0.59242  0.59242  N:    NaN  9.000    NaN  Nx:     NaN   dN:       NaN
 MRCHUE: Convergence failed at  13  side 1    Res =         NaN
 TRCHEK2: N2 convergence failed.
 x:  0.49212  0.59242  0.59242  N:    NaN  9.000    NaN  Nx:     NaN   dN:       NaN
 TRCHEK2: N2 convergence failed.
 x:  0.59242  0.69276  0.69276  N:    NaN  9.000    NaN  Nx:     NaN   dN:       NaN
 MRCHUE: Inverse mode at  14     Hk =   3.800
 TRCHEK2: N2 convergence failed.
 x:  0.59242  0.69276  0.69276  N:    NaN  9.000    NaN  Nx:     NaN   dN:       NaN
 TRCHEK2: N2 convergence failed.
 x:  0.59242  0.69276  0.69276  N:    NaN  9.000    NaN  Nx:     NaN   dN:       NaN
 TRCHEK2: N2 convergence failed.
 x:  0.59242  0.69276  0.69276  N:    NaN  9.000    NaN  Nx:     NaN   dN:       NaN
 TRCHEK2: N2 convergence failed.
 x:  0.59242  0.69276  0.69276  N:    NaN  9.000    NaN  Nx:     NaN   dN:       NaN
 TRCHEK2: N2 convergence failed.
 x:  0.59242  0.69276  0.69276  N:    NaN  9.000    NaN  Nx:     NaN   dN:       NaN
 TRCHEK2: N2 convergence failed.
 x:  0.59242  0.69276  0.69276  N:    NaN  9.000    NaN  Nx:     NaN   dN:       NaN
 TRCHEK2: N2 convergence failed.
 x:  0.59242  0.69276  0.69276  N:    NaN  9.000    NaN  Nx:     NaN   dN:       NaN
 TRCHEK2: N2 convergence failed.
 x:  0.59242  0.69276  0.69276  N:    NaN  9.000    NaN  Nx:     NaN   dN:       NaN
 TRCHEK2: N2 convergence failed.
 x:  0.59242  0.69276  0.69276  N:    NaN  9.000    NaN  Nx:     NaN   dN:       NaN
 TRCHEK2: N2 convergence failed.
 x:  0.59242  0.69276  0.69276  N:    NaN  9.000    NaN  Nx:     NaN   dN:       NaN
 TRCHEK2: N2 convergence failed.
 x:  0.59242  0.69276  0.69276  N:    NaN  9.000    NaN  Nx:     NaN   dN:       NaN
 TRCHEK2: N2 convergence failed.
 x:  0.59242  0.69276  0.69276  N:    NaN  9.000    NaN  Nx:     NaN   dN:       NaN
 TRCHEK2: N2 convergence failed.
 x:  0.59242  0.69276  0.69276  N:    NaN  9.000    NaN  Nx:     NaN   dN:       NaN
 TRCHEK2: N2 convergence failed.
 x:  0.59242  0.69276  0.69276  N:    NaN  9.000    NaN  Nx:     NaN   dN:       NaN
 TRCHEK2: N2 convergence failed.
 x:  0.59242  0.69276  0.69276  N:    NaN  9.000    NaN  Nx:     NaN   dN:       NaN
 TRCHEK2: N2 convergence failed.
 x:  0.59242  0.69276  0.69276  N:    NaN  9.000    NaN  Nx:     NaN   dN:       NaN
 TRCHEK2: N2 convergence failed.
 x:  0.59242  0.69276  0.69276  N:    NaN  9.000    NaN  Nx:     NaN   dN:       NaN
 TRCHEK2: N2 convergence failed.
 x:  0.59242  0.69276  0.69276  N:    NaN  9.000    NaN  Nx:     NaN   dN:       NaN
 TRCHEK2: N2 convergence failed.
 x:  0.59242  0.69276  0.69276  N:    NaN  9.000    NaN  Nx:     NaN   dN:       NaN
 TRCHEK2: N2 convergence failed.
 x:  0.59242  0.69276  0.69276  N:    NaN  9.000    NaN  Nx:     NaN   dN:       NaN
 TRCHEK2: N2 convergence failed.
 x:  0.59242  0.69276  0.69276  N:    NaN  9.000    NaN  Nx:     NaN   dN:       NaN
 TRCHEK2: N2 convergence failed.
 x:  0.59242  0.69276  0.69276  N:    NaN  9.000    NaN  Nx:     NaN   dN:       NaN
 TRCHEK2: N2 convergence failed.
 x:  0.59242  0.69276  0.69276  N:    NaN  9.000    NaN  Nx:     NaN   dN:       NaN
 TRCHEK2: N2 convergence failed.
 x:  0.59242  0.69276  0.69276  N:    NaN  9.000    NaN  Nx:     NaN   dN:       NaN
 MRCHUE: Convergence failed at  14  side 1    Res =         NaN
 TRCHEK2: N2 convergence failed.
 x:  0.59242  0.69276  0.69276  N:    NaN  9.000    NaN  Nx:     NaN   dN:       NaN
 TRCHEK2: N2 convergence failed.
 x:  0.69276  0.79314  0.79314  N:    NaN  9.000    NaN  Nx:     NaN   dN:       NaN
 MRCHUE: Inverse mode at  15     Hk =   3.800
 TRCHEK2: N2 convergence failed.
 x:  0.69276  0.79314  0.79314  N:    NaN  9.000    NaN  Nx:     NaN   dN:       NaN
 TRCHEK2: N2 convergence failed.
 x:  0.69276  0.79314  0.79314  N:    NaN  9.000    NaN  Nx:     NaN   dN:       NaN
 TRCHEK2: N2 convergence failed.
 x:  0.69276  0.79314  0.79314  N:    NaN  9.000    NaN  Nx:     NaN   dN:       NaN
 TRCHEK2: N2 convergence failed.
 x:  0.69276  0.79314  0.79314  N:    NaN  9.000    NaN  Nx:     NaN   dN:       NaN
 TRCHEK2: N2 convergence failed.
 x:  0.69276  0.79314  0.79314  N:    NaN  9.000    NaN  Nx:     NaN   dN:       NaN
 TRCHEK2: N2 convergence failed.
 x:  0.69276  0.79314  0.79314  N:    NaN  9.000    NaN  Nx:     NaN   dN:       NaN
 TRCHEK2: N2 convergence failed.
 x:  0.69276  0.79314  0.79314  N:    NaN  9.000    NaN  Nx:     NaN   dN:       NaN
 TRCHEK2: N2 convergence failed.
 x:  0.69276  0.79314  0.79314  N:    NaN  9.000    NaN  Nx:     NaN   dN:       NaN
 TRCHEK2: N2 convergence failed.
 x:  0.69276  0.79314  0.79314  N:    NaN  9.000    NaN  Nx:     NaN   dN:       NaN
 TRCHEK2: N2 convergence failed.
 x:  0.69276  0.79314  0.79314  N:    NaN  9.000    NaN  Nx:     NaN   dN:       NaN
 TRCHEK2: N2 convergence failed.
 x:  0.69276  0.79314  0.79314  N:    NaN  9.000    NaN  Nx:     NaN   dN:       NaN
 TRCHEK2: N2 convergence failed.
 x:  0.69276  0.79314  0.79314  N:    NaN  9.000    NaN  Nx:     NaN   dN:       NaN
 TRCHEK2: N2 convergence failed.
 x:  0.69276  0.79314  0.79314  N:    NaN  9.000    NaN  Nx:     NaN   dN:       NaN
 TRCHEK2: N2 convergence failed.
 x:  0.69276  0.79314  0.79314  N:    NaN  9.000    NaN  Nx:     NaN   dN:       NaN
 TRCHEK2: N2 convergence failed.
 x:  0.69276  0.79314  0.79314  N:    NaN  9.000    NaN  Nx:     NaN   dN:       NaN
 TRCHEK2: N2 convergence failed.
 x:  0.69276  0.79314  0.79314  N:    NaN  9.000    NaN  Nx:     NaN   dN:       NaN
 TRCHEK2: N2 convergence failed.
 x:  0.69276  0.79314  0.79314  N:    NaN  9.000    NaN  Nx:     NaN   dN:       NaN
 TRCHEK2: N2 convergence failed.
 x:  0.69276  0.79314  0.79314  N:    NaN  9.000    NaN  Nx:     NaN   dN:       NaN
 TRCHEK2: N2 convergence failed.
 x:  0.69276  0.79314  0.79314  N:    NaN  9.000    NaN  Nx:     NaN   dN:       NaN
 TRCHEK2: N2 convergence failed.
 x:  0.69276  0.79314  0.79314  N:    NaN  9.000    NaN  Nx:     NaN   dN:       NaN
 TRCHEK2: N2 convergence failed.
 x:  0.69276  0.79314  0.79314  N:    NaN  9.000    NaN  Nx:     NaN   dN:       NaN
 TRCHEK2: N2 convergence failed.
 x:  0.69276  0.79314  0.79314  N:    NaN  9.000    NaN  Nx:     NaN   dN:       NaN
 TRCHEK2: N2 convergence failed.
 x:  0.69276  0.79314  0.79314  N:    NaN  9.000    NaN  Nx:     NaN   dN:       NaN
 TRCHEK2: N2 convergence failed.
 x:  0.69276  0.79314  0.79314  N:    NaN  9.000    NaN  Nx:     NaN   dN:       NaN
 MRCHUE: Convergence failed at  15  side 1    Res =         NaN
 TRCHEK2: N2 convergence failed.
 x:  0.69276  0.79314  0.79314  N:    NaN  9.000    NaN  Nx:     NaN   dN:       NaN
 TRCHEK2: N2 convergence failed.
 x:  0.79314  0.89355  0.89355  N:    NaN  9.000    NaN  Nx:     NaN   dN:       NaN
 MRCHUE: Inverse mode at  16     Hk =   3.800
 TRCHEK2: N2 convergence failed.
 x:  0.79314  0.89355  0.89355  N:    NaN  9.000    NaN  Nx:     NaN   dN:       NaN
 TRCHEK2: N2 convergence failed.
 x:  0.79314  0.89355  0.89355  N:    NaN  9.000    NaN  Nx:     NaN   dN:       NaN
 TRCHEK2: N2 convergence failed.
 x:  0.79314  0.89355  0.89355  N:    NaN  9.000    NaN  Nx:     NaN   dN:       NaN
 TRCHEK2: N2 convergence failed.
 x:  0.79314  0.89355  0.89355  N:    NaN  9.000    NaN  Nx:     NaN   dN:       NaN
 TRCHEK2: N2 convergence failed.
 x:  0.79314  0.89355  0.89355  N:    NaN  9.000    NaN  Nx:     NaN   dN:       NaN
 TRCHEK2: N2 convergence failed.
 x:  0.79314  0.89355  0.89355  N:    NaN  9.000    NaN  Nx:     NaN   dN:       NaN
 TRCHEK2: N2 convergence failed.
 x:  0.79314  0.89355  0.89355  N:    NaN  9.000    NaN  Nx:     NaN   dN:       NaN
 TRCHEK2: N2 convergence failed.
 x:  0.79314  0.89355  0.89355  N:    NaN  9.000    NaN  Nx:     NaN   dN:       NaN
 TRCHEK2: N2 convergence failed.
 x:  0.79314  0.89355  0.89355  N:    NaN  9.000    NaN  Nx:     NaN   dN:       NaN
 TRCHEK2: N2 convergence failed.
 x:  0.79314  0.89355  0.89355  N:    NaN  9.000    NaN  Nx:     NaN   dN:       NaN
 TRCHEK2: N2 convergence failed.
 x:  0.79314  0.89355  0.89355  N:    NaN  9.000    NaN  Nx:     NaN   dN:       NaN
 TRCHEK2: N2 convergence failed.
 x:  0.79314  0.89355  0.89355  N:    NaN  9.000    NaN  Nx:     NaN   dN:       NaN
 TRCHEK2: N2 convergence failed.
 x:  0.79314  0.89355  0.89355  N:    NaN  9.000    NaN  Nx:     NaN   dN:       NaN
 TRCHEK2: N2 convergence failed.
 x:  0.79314  0.89355  0.89355  N:    NaN  9.000    NaN  Nx:     NaN   dN:       NaN
 TRCHEK2: N2 convergence failed.
 x:  0.79314  0.89355  0.89355  N:    NaN  9.000    NaN  Nx:     NaN   dN:       NaN
 TRCHEK2: N2 convergence failed.
 x:  0.79314  0.89355  0.89355  N:    NaN  9.000    NaN  Nx:     NaN   dN:       NaN
 TRCHEK2: N2 convergence failed.
 x:  0.79314  0.89355  0.89355  N:    NaN  9.000    NaN  Nx:     NaN   dN:       NaN
 TRCHEK2: N2 convergence failed.
 x:  0.79314  0.89355  0.89355  N:    NaN  9.000    NaN  Nx:     NaN   dN:       NaN
 TRCHEK2: N2 convergence failed.
 x:  0.79314  0.89355  0.89355  N:    NaN  9.000    NaN  Nx:     NaN   dN:       NaN
 TRCHEK2: N2 convergence failed.
 x:  0.79314  0.89355  0.89355  N:    NaN  9.000    NaN  Nx:     NaN   dN:       NaN
 TRCHEK2: N2 convergence failed.
 x:  0.79314  0.89355  0.89355  N:    NaN  9.000    NaN  Nx:     NaN   dN:       NaN
 TRCHEK2: N2 convergence failed.
 x:  0.79314  0.89355  0.89355  N:    NaN  9.000    NaN  Nx:     NaN   dN:       NaN
 TRCHEK2: N2 convergence failed.
 x:  0.79314  0.89355  0.89355  N:    NaN  9.000    NaN  Nx:     NaN   dN:       NaN
 TRCHEK2: N2 convergence failed.
 x:  0.79314  0.89355  0.89355  N:    NaN  9.000    NaN  Nx:     NaN   dN:       NaN
 MRCHUE: Convergence failed at  16  side 1    Res =         NaN
 TRCHEK2: N2 convergence failed.
 x:  0.79314  0.89355  0.89355  N:    NaN  9.000    NaN  Nx:     NaN   dN:       NaN
 TRCHEK2: N2 convergence failed.
 x:  0.89355  0.94377  0.94377  N:    NaN  9.000    NaN  Nx:     NaN   dN:       NaN
 MRCHUE: Inverse mode at  17     Hk =   3.800
 TRCHEK2: N2 convergence failed.
 x:  0.89355  0.94377  0.94377  N:    NaN  9.000    NaN  Nx:     NaN   dN:       NaN
 TRCHEK2: N2 convergence failed.
 x:  0.89355  0.94377  0.94377  N:    NaN  9.000    NaN  Nx:     NaN   dN:       NaN
 TRCHEK2: N2 convergence failed.
 x:  0.89355  0.94377  0.94377  N:    NaN  9.000    NaN  Nx:     NaN   dN:       NaN
 TRCHEK2: N2 convergence failed.
 x:  0.89355  0.94377  0.94377  N:    NaN  9.000    NaN  Nx:     NaN   dN:       NaN
 TRCHEK2: N2 convergence failed.
 x:  0.89355  0.94377  0.94377  N:    NaN  9.000    NaN  Nx:     NaN   dN:       NaN
 TRCHEK2: N2 convergence failed.
 x:  0.89355  0.94377  0.94377  N:    NaN  9.000    NaN  Nx:     NaN   dN:       NaN
 TRCHEK2: N2 convergence failed.
 x:  0.89355  0.94377  0.94377  N:    NaN  9.000    NaN  Nx:     NaN   dN:       NaN
 TRCHEK2: N2 convergence failed.
 x:  0.89355  0.94377  0.94377  N:    NaN  9.000    NaN  Nx:     NaN   dN:       NaN
 TRCHEK2: N2 convergence failed.
 x:  0.89355  0.94377  0.94377  N:    NaN  9.000    NaN  Nx:     NaN   dN:       NaN
 TRCHEK2: N2 convergence failed.
 x:  0.89355  0.94377  0.94377  N:    NaN  9.000    NaN  Nx:     NaN   dN:       NaN
 TRCHEK2: N2 convergence failed.
 x:  0.89355  0.94377  0.94377  N:    NaN  9.000    NaN  Nx:     NaN   dN:       NaN
 TRCHEK2: N2 convergence failed.
 x:  0.89355  0.94377  0.94377  N:    NaN  9.000    NaN  Nx:     NaN   dN:       NaN
 TRCHEK2: N2 convergence failed.
 x:  0.89355  0.94377  0.94377  N:    NaN  9.000    NaN  Nx:     NaN   dN:       NaN
 TRCHEK2: N2 convergence failed.
 x:  0.89355  0.94377  0.94377  N:    NaN  9.000    NaN  Nx:     NaN   dN:       NaN
 TRCHEK2: N2 convergence failed.
 x:  0.89355  0.94377  0.94377  N:    NaN  9.000    NaN  Nx:     NaN   dN:       NaN
 TRCHEK2: N2 convergence failed.
 x:  0.89355  0.94377  0.94377  N:    NaN  9.000    NaN  Nx:     NaN   dN:       NaN
 TRCHEK2: N2 convergence failed.
 x:  0.89355  0.94377  0.94377  N:    NaN  9.000    NaN  Nx:     NaN   dN:       NaN
 TRCHEK2: N2 convergence failed.
 x:  0.89355  0.94377  0.94377  N:    NaN  9.000    NaN  Nx:     NaN   dN:       NaN
 TRCHEK2: N2 convergence failed.
 x:  0.89355  0.94377  0.94377  N:    NaN  9.000    NaN  Nx:     NaN   dN:       NaN
 TRCHEK2: N2 convergence failed.
 x:  0.89355  0.94377  0.94377  N:    NaN  9.000    NaN  Nx:     NaN   dN:       NaN
 TRCHEK2: N2 convergence failed.
 x:  0.89355  0.94377  0.94377  N:    NaN  9.000    NaN  Nx:     NaN   dN:       NaN
 TRCHEK2: N2 convergence failed.
 x:  0.89355  0.94377  0.94377  N:    NaN  9.000    NaN  Nx:     NaN   dN:       NaN
 TRCHEK2: N2 convergence failed.
 x:  0.89355  0.94377  0.94377  N:    NaN  9.000    NaN  Nx:     NaN   dN:       NaN
 TRCHEK2: N2 convergence failed.
 x:  0.89355  0.94377  0.94377  N:    NaN  9.000    NaN  Nx:     NaN   dN:       NaN
 MRCHUE: Convergence failed at  17  side 1    Res =         NaN
 TRCHEK2: N2 convergence failed.
 x:  0.89355  0.94377  0.94377  N:    NaN  9.000    NaN  Nx:     NaN   dN:       NaN
 TRCHEK2: N2 convergence failed.
 x:  0.94377  0.99398  0.99398  N:    NaN  9.000    NaN  Nx:     NaN   dN:       NaN
 MRCHUE: Inverse mode at  18     Hk =   2.500
 TRCHEK2: N2 convergence failed.
 x:  0.94377  0.99398  0.99398  N:    NaN  9.000    NaN  Nx:     NaN   dN:       NaN
 TRCHEK2: N2 convergence failed.
 x:  0.94377  0.99398  0.99398  N:    NaN  9.000    NaN  Nx:     NaN   dN:       NaN
 TRCHEK2: N2 convergence failed.
 x:  0.94377  0.99398  0.99398  N:    NaN  9.000    NaN  Nx:     NaN   dN:       NaN
 TRCHEK2: N2 convergence failed.
 x:  0.94377  0.99398  0.99398  N:    NaN  9.000    NaN  Nx:     NaN   dN:       NaN
 TRCHEK2: N2 convergence failed.
 x:  0.94377  0.99398  0.99398  N:    NaN  9.000    NaN  Nx:     NaN   dN:       NaN
 TRCHEK2: N2 convergence failed.
 x:  0.94377  0.99398  0.99398  N:    NaN  9.000    NaN  Nx:     NaN   dN:       NaN
 TRCHEK2: N2 convergence failed.
 x:  0.94377  0.99398  0.99398  N:    NaN  9.000    NaN  Nx:     NaN   dN:       NaN
 TRCHEK2: N2 convergence failed.
 x:  0.94377  0.99398  0.99398  N:    NaN  9.000    NaN  Nx:     NaN   dN:       NaN
 TRCHEK2: N2 convergence failed.
 x:  0.94377  0.99398  0.99398  N:    NaN  9.000    NaN  Nx:     NaN   dN:       NaN
 TRCHEK2: N2 convergence failed.
 x:  0.94377  0.99398  0.99398  N:    NaN  9.000    NaN  Nx:     NaN   dN:       NaN
 TRCHEK2: N2 convergence failed.
 x:  0.94377  0.99398  0.99398  N:    NaN  9.000    NaN  Nx:     NaN   dN:       NaN
 TRCHEK2: N2 convergence failed.
 x:  0.94377  0.99398  0.99398  N:    NaN  9.000    NaN  Nx:     NaN   dN:       NaN
 TRCHEK2: N2 convergence failed.
 x:  0.94377  0.99398  0.99398  N:    NaN  9.000    NaN  Nx:     NaN   dN:       NaN
 TRCHEK2: N2 convergence failed.
 x:  0.94377  0.99398  0.99398  N:    NaN  9.000    NaN  Nx:     NaN   dN:       NaN
 TRCHEK2: N2 convergence failed.
 x:  0.94377  0.99398  0.99398  N:    NaN  9.000    NaN  Nx:     NaN   dN:       NaN
 TRCHEK2: N2 convergence failed.
 x:  0.94377  0.99398  0.99398  N:    NaN  9.000    NaN  Nx:     NaN   dN:       NaN
 TRCHEK2: N2 convergence failed.
 x:  0.94377  0.99398  0.99398  N:    NaN  9.000    NaN  Nx:     NaN   dN:       NaN
 TRCHEK2: N2 convergence failed.
 x:  0.94377  0.99398  0.99398  N:    NaN  9.000    NaN  Nx:     NaN   dN:       NaN
 TRCHEK2: N2 convergence failed.
 x:  0.94377  0.99398  0.99398  N:    NaN  9.000    NaN  Nx:     NaN   dN:       NaN
 TRCHEK2: N2 convergence failed.
 x:  0.94377  0.99398  0.99398  N:    NaN  9.000    NaN  Nx:     NaN   dN:       NaN
 TRCHEK2: N2 convergence failed.
 x:  0.94377  0.99398  0.99398  N:    NaN  9.000    NaN  Nx:     NaN   dN:       NaN
 TRCHEK2: N2 convergence failed.
 x:  0.94377  0.99398  0.99398  N:    NaN  9.000    NaN  Nx:     NaN   dN:       NaN
 TRCHEK2: N2 convergence failed.
 x:  0.94377  0.99398  0.99398  N:    NaN  9.000    NaN  Nx:     NaN   dN:       NaN
 TRCHEK2: N2 convergence failed.
 x:  0.94377  0.99398  0.99398  N:    NaN  9.000    NaN  Nx:     NaN   dN:       NaN
 MRCHUE: Convergence failed at  18  side 1    Res =         NaN
 TRCHEK2: N2 convergence failed.
 x:  0.94377  0.99398  0.99398  N:    NaN  9.000    NaN  Nx:     NaN   dN:       NaN
    side            2  ...
 MRCHUE: Convergence failed at   3  side 2    Res =  0.1382E+03
 MRCHUE: Convergence failed at   4  side 2    Res =  0.1632E+02
 MRCHUE: Convergence failed at   5  side 2    Res =  0.2993E+03
 MRCHUE: Convergence failed at   6  side 2    Res =  0.1905E+01
 MRCHUE: Inverse mode at   7     Hk =  13.919
 MRCHUE: Convergence failed at   7  side 2    Res =  0.1928E+00
 MRCHUE: Convergence failed at   8  side 2    Res =  0.4203E+01
 MRCHUE: Convergence failed at   9  side 2    Res =  0.3954E+01
 MRCHUE: Inverse mode at  10     Hk =  17.587
 MRCHUE: Convergence failed at  10  side 2    Res =  0.1021E-01
 MRCHUE: Inverse mode at  11     Hk =   2.500
 MRCHUE: Inverse mode at  12     Hk =   2.500
 MRCHUE: Convergence failed at  13  side 2    Res =  0.1350E+01
 MRCHUE: Convergence failed at  14  side 2    Res =  0.1764E+01
 MRCHUE: Convergence failed at  15  side 2    Res =  0.2457E+01
 MRCHUE: Convergence failed at  16  side 2    Res =  0.7146E+01
 MRCHUE: Convergence failed at  17  side 2    Res =  0.8482E+02
 MRCHUE: Convergence failed at  18  side 2    Res =  0.1119E+03
 MRCHUE: Inverse mode at  19     Hk =   2.500
 MRCHUE: Convergence failed at  19  side 2    Res =         NaN
 MRCHUE: Convergence failed at  20  side 2    Res =         NaN
 MRCHUE: Inverse mode at  21     Hk =   1.010
 MRCHUE: Convergence failed at  21  side 2    Res =         NaN
 MRCHUE: Inverse mode at  22     Hk =   1.010
 MRCHUE: Convergence failed at  22  side 2    Res =         NaN
 MRCHUE: Inverse mode at  23     Hk =   1.010
 MRCHUE: Convergence failed at  23  side 2    Res =         NaN
 MRCHUE: Inverse mode at  24     Hk =   1.010
 MRCHUE: Convergence failed at  24  side 2    Res =         NaN
 MRCHUE: Inverse mode at  25     Hk =   1.010
 MRCHUE: Convergence failed at  25  side 2    Res =         NaN

 MRCHDU: Convergence failed at   2  side 1    Res =         NaN
 TRCHEK2: N2 convergence failed.
 x:  0.00000  0.01342  0.01342  N:    NaN  9.000    NaN  Nx:     NaN   dN:       NaN
 TRCHEK2: N2 convergence failed.
 x:  0.00000  0.01342  0.01342  N:    NaN  9.000    NaN  Nx:     NaN   dN:       NaN
 TRCHEK2: N2 convergence failed.
 x:  0.00000  0.01342  0.01342  N:    NaN  9.000    NaN  Nx:     NaN   dN:       NaN
 TRCHEK2: N2 convergence failed.
 x:  0.00000  0.01342  0.01342  N:    NaN  9.000    NaN  Nx:     NaN   dN:       NaN
 TRCHEK2: N2 convergence failed.
 x:  0.00000  0.01342  0.01342  N:    NaN  9.000    NaN  Nx:     NaN   dN:       NaN
 TRCHEK2: N2 convergence failed.
 x:  0.00000  0.01342  0.01342  N:    NaN  9.000    NaN  Nx:     NaN   dN:       NaN
 TRCHEK2: N2 convergence failed.
 x:  0.00000  0.01342  0.01342  N:    NaN  9.000    NaN  Nx:     NaN   dN:       NaN
 TRCHEK2: N2 convergence failed.
 x:  0.00000  0.01342  0.01342  N:    NaN  9.000    NaN  Nx:     NaN   dN:       NaN
 TRCHEK2: N2 convergence failed.
 x:  0.00000  0.01342  0.01342  N:    NaN  9.000    NaN  Nx:     NaN   dN:       NaN
 TRCHEK2: N2 convergence failed.
 x:  0.00000  0.01342  0.01342  N:    NaN  9.000    NaN  Nx:     NaN   dN:       NaN
 TRCHEK2: N2 convergence failed.
 x:  0.00000  0.01342  0.01342  N:    NaN  9.000    NaN  Nx:     NaN   dN:       NaN
 TRCHEK2: N2 convergence failed.
 x:  0.00000  0.01342  0.01342  N:    NaN  9.000    NaN  Nx:     NaN   dN:       NaN
 TRCHEK2: N2 convergence failed.
 x:  0.00000  0.01342  0.01342  N:    NaN  9.000    NaN  Nx:     NaN   dN:       NaN
 TRCHEK2: N2 convergence failed.
 x:  0.00000  0.01342  0.01342  N:    NaN  9.000    NaN  Nx:     NaN   dN:       NaN
 TRCHEK2: N2 convergence failed.
 x:  0.00000  0.01342  0.01342  N:    NaN  9.000    NaN  Nx:     NaN   dN:       NaN
 TRCHEK2: N2 convergence failed.
 x:  0.00000  0.01342  0.01342  N:    NaN  9.000    NaN  Nx:     NaN   dN:       NaN
 TRCHEK2: N2 convergence failed.
 x:  0.00000  0.01342  0.01342  N:    NaN  9.000    NaN  Nx:     NaN   dN:       NaN
 TRCHEK2: N2 convergence failed.
 x:  0.00000  0.01342  0.01342  N:    NaN  9.000    NaN  Nx:     NaN   dN:       NaN
 TRCHEK2: N2 convergence failed.
 x:  0.00000  0.01342  0.01342  N:    NaN  9.000    NaN  Nx:     NaN   dN:       NaN
 TRCHEK2: N2 convergence failed.
 x:  0.00000  0.01342  0.01342  N:    NaN  9.000    NaN  Nx:     NaN   dN:       NaN
 TRCHEK2: N2 convergence failed.
 x:  0.00000  0.01342  0.01342  N:    NaN  9.000    NaN  Nx:     NaN   dN:       NaN
 TRCHEK2: N2 convergence failed.
 x:  0.00000  0.01342  0.01342  N:    NaN  9.000    NaN  Nx:     NaN   dN:       NaN
 TRCHEK2: N2 convergence failed.
 x:  0.00000  0.01342  0.01342  N:    NaN  9.000    NaN  Nx:     NaN   dN:       NaN
 TRCHEK2: N2 convergence failed.
 x:  0.00000  0.01342  0.01342  N:    NaN  9.000    NaN  Nx:     NaN   dN:       NaN
 TRCHEK2: N2 convergence failed.
 x:  0.00000  0.01342  0.01342  N:    NaN  9.000    NaN  Nx:     NaN   dN:       NaN
 MRCHDU: Convergence failed at   3  side 1    Res =         NaN
 TRCHEK2: N2 convergence failed.
 x:  0.00000  0.01342  0.01342  N:    NaN  9.000    NaN  Nx:     NaN   dN:       NaN
 TRCHEK2: N2 convergence failed.
 x:  0.01342  0.03928  0.03928  N:    NaN  9.000    NaN  Nx:     NaN   dN:       NaN
 TRCHEK2: N2 convergence failed.
 x:  0.01342  0.03928  0.03928  N:    NaN  9.000    NaN  Nx:     NaN   dN:       NaN
 TRCHEK2: N2 convergence failed.
 x:  0.01342  0.03928  0.03928  N:    NaN  9.000    NaN  Nx:     NaN   dN:       NaN
 TRCHEK2: N2 convergence failed.
 x:  0.01342  0.03928  0.03928  N:    NaN  9.000    NaN  Nx:     NaN   dN:       NaN
 TRCHEK2: N2 convergence failed.
 x:  0.01342  0.03928  0.03928  N:    NaN  9.000    NaN  Nx:     NaN   dN:       NaN
 TRCHEK2: N2 convergence failed.
 x:  0.01342  0.03928  0.03928  N:    NaN  9.000    NaN  Nx:     NaN   dN:       NaN
 TRCHEK2: N2 convergence failed.
 x:  0.01342  0.03928  0.03928  N:    NaN  9.000    NaN  Nx:     NaN   dN:       NaN
 TRCHEK2: N2 convergence failed.
 x:  0.01342  0.03928  0.03928  N:    NaN  9.000    NaN  Nx:     NaN   dN:       NaN
 TRCHEK2: N2 convergence failed.
 x:  0.01342  0.03928  0.03928  N:    NaN  9.000    NaN  Nx:     NaN   dN:       NaN
 TRCHEK2: N2 convergence failed.
 x:  0.01342  0.03928  0.03928  N:    NaN  9.000    NaN  Nx:     NaN   dN:       NaN
 TRCHEK2: N2 convergence failed.
 x:  0.01342  0.03928  0.03928  N:    NaN  9.000    NaN  Nx:     NaN   dN:       NaN
 TRCHEK2: N2 convergence failed.
 x:  0.01342  0.03928  0.03928  N:    NaN  9.000    NaN  Nx:     NaN   dN:       NaN
 TRCHEK2: N2 convergence failed.
 x:  0.01342  0.03928  0.03928  N:    NaN  9.000    NaN  Nx:     NaN   dN:       NaN
 TRCHEK2: N2 convergence failed.
 x:  0.01342  0.03928  0.03928  N:    NaN  9.000    NaN  Nx:     NaN   dN:       NaN
 TRCHEK2: N2 convergence failed.
 x:  0.01342  0.03928  0.03928  N:    NaN  9.000    NaN  Nx:     NaN   dN:       NaN
 TRCHEK2: N2 convergence failed.
 x:  0.01342  0.03928  0.03928  N:    NaN  9.000    NaN  Nx:     NaN   dN:       NaN
 TRCHEK2: N2 convergence failed.
 x:  0.01342  0.03928  0.03928  N:    NaN  9.000    NaN  Nx:     NaN   dN:       NaN
 TRCHEK2: N2 convergence failed.
 x:  0.01342  0.03928  0.03928  N:    NaN  9.000    NaN  Nx:     NaN   dN:       NaN
 TRCHEK2: N2 convergence failed.
 x:  0.01342  0.03928  0.03928  N:    NaN  9.000    NaN  Nx:     NaN   dN:       NaN
 TRCHEK2: N2 convergence failed.
 x:  0.01342  0.03928  0.03928  N:    NaN  9.000    NaN  Nx:     NaN   dN:       NaN
 TRCHEK2: N2 convergence failed.
 x:  0.01342  0.03928  0.03928  N:    NaN  9.000    NaN  Nx:     NaN   dN:       NaN
 TRCHEK2: N2 convergence failed.
 x:  0.01342  0.03928  0.03928  N:    NaN  9.000    NaN  Nx:     NaN   dN:       NaN
 TRCHEK2: N2 convergence failed.
 x:  0.01342  0.03928  0.03928  N:    NaN  9.000    NaN  Nx:     NaN   dN:       NaN
 TRCHEK2: N2 convergence failed.
 x:  0.01342  0.03928  0.03928  N:    NaN  9.000    NaN  Nx:     NaN   dN:       NaN
 TRCHEK2: N2 convergence failed.
 x:  0.01342  0.03928  0.03928  N:    NaN  9.000    NaN  Nx:     NaN   dN:       NaN
 MRCHDU: Convergence failed at   4  side 1    Res =         NaN
 TRCHEK2: N2 convergence failed.
 x:  0.01342  0.03928  0.03928  N:    NaN  9.000    NaN  Nx:     NaN   dN:       NaN
 TRCHEK2: N2 convergence failed.
 x:  0.03928  0.06475  0.06475  N:    NaN  9.000    NaN  Nx:     NaN   dN:       NaN
 TRCHEK2: N2 convergence failed.
 x:  0.03928  0.06475  0.06475  N:    NaN  9.000    NaN  Nx:     NaN   dN:       NaN
 TRCHEK2: N2 convergence failed.
 x:  0.03928  0.06475  0.06475  N:    NaN  9.000    NaN  Nx:     NaN   dN:       NaN
 TRCHEK2: N2 convergence failed.
 x:  0.03928  0.06475  0.06475  N:    NaN  9.000    NaN  Nx:     NaN   dN:       NaN
 TRCHEK2: N2 convergence failed.
 x:  0.03928  0.06475  0.06475  N:    NaN  9.000    NaN  Nx:     NaN   dN:       NaN
 TRCHEK2: N2 convergence failed.
 x:  0.03928  0.06475  0.06475  N:    NaN  9.000    NaN  Nx:     NaN   dN:       NaN
 TRCHEK2: N2 convergence failed.
 x:  0.03928  0.06475  0.06475  N:    NaN  9.000    NaN  Nx:     NaN   dN:       NaN
 TRCHEK2: N2 convergence failed.
 x:  0.03928  0.06475  0.06475  N:    NaN  9.000    NaN  Nx:     NaN   dN:       NaN
 TRCHEK2: N2 convergence failed.
 x:  0.03928  0.06475  0.06475  N:    NaN  9.000    NaN  Nx:     NaN   dN:       NaN
 TRCHEK2: N2 convergence failed.
 x:  0.03928  0.06475  0.06475  N:    NaN  9.000    NaN  Nx:     NaN   dN:       NaN
 TRCHEK2: N2 convergence failed.
 x:  0.03928  0.06475  0.06475  N:    NaN  9.000    NaN  Nx:     NaN   dN:       NaN
 TRCHEK2: N2 convergence failed.
 x:  0.03928  0.06475  0.06475  N:    NaN  9.000    NaN  Nx:     NaN   dN:       NaN
 TRCHEK2: N2 convergence failed.
 x:  0.03928  0.06475  0.06475  N:    NaN  9.000    NaN  Nx:     NaN   dN:       NaN
 TRCHEK2: N2 convergence failed.
 x:  0.03928  0.06475  0.06475  N:    NaN  9.000    NaN  Nx:     NaN   dN:       NaN
 TRCHEK2: N2 convergence failed.
 x:  0.03928  0.06475  0.06475  N:    NaN  9.000    NaN  Nx:     NaN   dN:       NaN
 TRCHEK2: N2 convergence failed.
 x:  0.03928  0.06475  0.06475  N:    NaN  9.000    NaN  Nx:     NaN   dN:       NaN
 TRCHEK2: N2 convergence failed.
 x:  0.03928  0.06475  0.06475  N:    NaN  9.000    NaN  Nx:     NaN   dN:       NaN
 TRCHEK2: N2 convergence failed.
 x:  0.03928  0.06475  0.06475  N:    NaN  9.000    NaN  Nx:     NaN   dN:       NaN
 TRCHEK2: N2 convergence failed.
 x:  0.03928  0.06475  0.06475  N:    NaN  9.000    NaN  Nx:     NaN   dN:       NaN
 TRCHEK2: N2 convergence failed.
 x:  0.03928  0.06475  0.06475  N:    NaN  9.000    NaN  Nx:     NaN   dN:       NaN
 TRCHEK2: N2 convergence failed.
 x:  0.03928  0.06475  0.06475  N:    NaN  9.000    NaN  Nx:     NaN   dN:       NaN
 TRCHEK2: N2 convergence failed.
 x:  0.03928  0.06475  0.06475  N:    NaN  9.000    NaN  Nx:     NaN   dN:       NaN
 TRCHEK2: N2 convergence failed.
 x:  0.03928  0.06475  0.06475  N:    NaN  9.000    NaN  Nx:     NaN   dN:       NaN
 TRCHEK2: N2 convergence failed.
 x:  0.03928  0.06475  0.06475  N:    NaN  9.000    NaN  Nx:     NaN   dN:       NaN
 TRCHEK2: N2 convergence failed.
 x:  0.03928  0.06475  0.06475  N:    NaN  9.000    NaN  Nx:     NaN   dN:       NaN
 MRCHDU: Convergence failed at   5  side 1    Res =         NaN
 TRCHEK2: N2 convergence failed.
 x:  0.03928  0.06475  0.06475  N:    NaN  9.000    NaN  Nx:     NaN   dN:       NaN
 TRCHEK2: N2 convergence failed.
 x:  0.06475  0.09007  0.09007  N:    NaN  9.000    NaN  Nx:     NaN   dN:       NaN
 TRCHEK2: N2 convergence failed.
 x:  0.06475  0.09007  0.09007  N:    NaN  9.000    NaN  Nx:     NaN   dN:       NaN
 TRCHEK2: N2 convergence failed.
 x:  0.06475  0.09007  0.09007  N:    NaN  9.000    NaN  Nx:     NaN   dN:       NaN
 TRCHEK2: N2 convergence failed.
 x:  0.06475  0.09007  0.09007  N:    NaN  9.000    NaN  Nx:     NaN   dN:       NaN
 TRCHEK2: N2 convergence failed.
 x:  0.06475  0.09007  0.09007  N:    NaN  9.000    NaN  Nx:     NaN   dN:       NaN
 TRCHEK2: N2 convergence failed.
 x:  0.06475  0.09007  0.09007  N:    NaN  9.000    NaN  Nx:     NaN   dN:       NaN
 TRCHEK2: N2 convergence failed.
 x:  0.06475  0.09007  0.09007  N:    NaN  9.000    NaN  Nx:     NaN   dN:       NaN
 TRCHEK2: N2 convergence failed.
 x:  0.06475  0.09007  0.09007  N:    NaN  9.000    NaN  Nx:     NaN   dN:       NaN
 TRCHEK2: N2 convergence failed.
 x:  0.06475  0.09007  0.09007  N:    NaN  9.000    NaN  Nx:     NaN   dN:       NaN
 TRCHEK2: N2 convergence failed.
 x:  0.06475  0.09007  0.09007  N:    NaN  9.000    NaN  Nx:     NaN   dN:       NaN
 TRCHEK2: N2 convergence failed.
 x:  0.06475  0.09007  0.09007  N:    NaN  9.000    NaN  Nx:     NaN   dN:       NaN
 TRCHEK2: N2 convergence failed.
 x:  0.06475  0.09007  0.09007  N:    NaN  9.000    NaN  Nx:     NaN   dN:       NaN
 TRCHEK2: N2 convergence failed.
 x:  0.06475  0.09007  0.09007  N:    NaN  9.000    NaN  Nx:     NaN   dN:       NaN
 TRCHEK2: N2 convergence failed.
 x:  0.06475  0.09007  0.09007  N:    NaN  9.000    NaN  Nx:     NaN   dN:       NaN
 TRCHEK2: N2 convergence failed.
 x:  0.06475  0.09007  0.09007  N:    NaN  9.000    NaN  Nx:     NaN   dN:       NaN
 TRCHEK2: N2 convergence failed.
 x:  0.06475  0.09007  0.09007  N:    NaN  9.000    NaN  Nx:     NaN   dN:       NaN
 TRCHEK2: N2 convergence failed.
 x:  0.06475  0.09007  0.09007  N:    NaN  9.000    NaN  Nx:     NaN   dN:       NaN
 TRCHEK2: N2 convergence failed.
 x:  0.06475  0.09007  0.09007  N:    NaN  9.000    NaN  Nx:     NaN   dN:       NaN
 TRCHEK2: N2 convergence failed.
 x:  0.06475  0.09007  0.09007  N:    NaN  9.000    NaN  Nx:     NaN   dN:       NaN
 TRCHEK2: N2 convergence failed.
 x:  0.06475  0.09007  0.09007  N:    NaN  9.000    NaN  Nx:     NaN   dN:       NaN
 TRCHEK2: N2 convergence failed.
 x:  0.06475  0.09007  0.09007  N:    NaN  9.000    NaN  Nx:     NaN   dN:       NaN
 TRCHEK2: N2 convergence failed.
 x:  0.06475  0.09007  0.09007  N:    NaN  9.000    NaN  Nx:     NaN   dN:       NaN
 TRCHEK2: N2 convergence failed.
 x:  0.06475  0.09007  0.09007  N:    NaN  9.000    NaN  Nx:     NaN   dN:       NaN
 TRCHEK2: N2 convergence failed.
 x:  0.06475  0.09007  0.09007  N:    NaN  9.000    NaN  Nx:     NaN   dN:       NaN
 TRCHEK2: N2 convergence failed.
 x:  0.06475  0.09007  0.09007  N:    NaN  9.000    NaN  Nx:     NaN   dN:       NaN
 MRCHDU: Convergence failed at   6  side 1    Res =         NaN
 TRCHEK2: N2 convergence failed.
 x:  0.06475  0.09007  0.09007  N:    NaN  9.000    NaN  Nx:     NaN   dN:       NaN
 TRCHEK2: N2 convergence failed.
 x:  0.09007  0.14050  0.14050  N:    NaN  9.000    NaN  Nx:     NaN   dN:       NaN
 TRCHEK2: N2 convergence failed.
 x:  0.09007  0.14050  0.14050  N:    NaN  9.000    NaN  Nx:     NaN   dN:       NaN
 TRCHEK2: N2 convergence failed.
 x:  0.09007  0.14050  0.14050  N:    NaN  9.000    NaN  Nx:     NaN   dN:       NaN
 TRCHEK2: N2 convergence failed.
 x:  0.09007  0.14050  0.14050  N:    NaN  9.000    NaN  Nx:     NaN   dN:       NaN
 TRCHEK2: N2 convergence failed.
 x:  0.09007  0.14050  0.14050  N:    NaN  9.000    NaN  Nx:     NaN   dN:       NaN
 TRCHEK2: N2 convergence failed.
 x:  0.09007  0.14050  0.14050  N:    NaN  9.000    NaN  Nx:     NaN   dN:       NaN
 TRCHEK2: N2 convergence failed.
 x:  0.09007  0.14050  0.14050  N:    NaN  9.000    NaN  Nx:     NaN   dN:       NaN
 TRCHEK2: N2 convergence failed.
 x:  0.09007  0.14050  0.14050  N:    NaN  9.000    NaN  Nx:     NaN   dN:       NaN
 TRCHEK2: N2 convergence failed.
 x:  0.09007  0.14050  0.14050  N:    NaN  9.000    NaN  Nx:     NaN   dN:       NaN
 TRCHEK2: N2 convergence failed.
 x:  0.09007  0.14050  0.14050  N:    NaN  9.000    NaN  Nx:     NaN   dN:       NaN
 TRCHEK2: N2 convergence failed.
 x:  0.09007  0.14050  0.14050  N:    NaN  9.000    NaN  Nx:     NaN   dN:       NaN
 TRCHEK2: N2 convergence failed.
 x:  0.09007  0.14050  0.14050  N:    NaN  9.000    NaN  Nx:     NaN   dN:       NaN
 TRCHEK2: N2 convergence failed.
 x:  0.09007  0.14050  0.14050  N:    NaN  9.000    NaN  Nx:     NaN   dN:       NaN
 TRCHEK2: N2 convergence failed.
 x:  0.09007  0.14050  0.14050  N:    NaN  9.000    NaN  Nx:     NaN   dN:       NaN
 TRCHEK2: N2 convergence failed.
 x:  0.09007  0.14050  0.14050  N:    NaN  9.000    NaN  Nx:     NaN   dN:       NaN
 TRCHEK2: N2 convergence failed.
 x:  0.09007  0.14050  0.14050  N:    NaN  9.000    NaN  Nx:     NaN   dN:       NaN
 TRCHEK2: N2 convergence failed.
 x:  0.09007  0.14050  0.14050  N:    NaN  9.000    NaN  Nx:     NaN   dN:       NaN
 TRCHEK2: N2 convergence failed.
 x:  0.09007  0.14050  0.14050  N:    NaN  9.000    NaN  Nx:     NaN   dN:       NaN
 TRCHEK2: N2 convergence failed.
 x:  0.09007  0.14050  0.14050  N:    NaN  9.000    NaN  Nx:     NaN   dN:       NaN
 TRCHEK2: N2 convergence failed.
 x:  0.09007  0.14050  0.14050  N:    NaN  9.000    NaN  Nx:     NaN   dN:       NaN
 TRCHEK2: N2 convergence failed.
 x:  0.09007  0.14050  0.14050  N:    NaN  9.000    NaN  Nx:     NaN   dN:       NaN
 TRCHEK2: N2 convergence failed.
 x:  0.09007  0.14050  0.14050  N:    NaN  9.000    NaN  Nx:     NaN   dN:       NaN
 TRCHEK2: N2 convergence failed.
 x:  0.09007  0.14050  0.14050  N:    NaN  9.000    NaN  Nx:     NaN   dN:       NaN
 TRCHEK2: N2 convergence failed.
 x:  0.09007  0.14050  0.14050  N:    NaN  9.000    NaN  Nx:     NaN   dN:       NaN
 TRCHEK2: N2 convergence failed.
 x:  0.09007  0.14050  0.14050  N:    NaN  9.000    NaN  Nx:     NaN   dN:       NaN
 MRCHDU: Convergence failed at   7  side 1    Res =         NaN
 TRCHEK2: N2 convergence failed.
 x:  0.09007  0.14050  0.14050  N:    NaN  9.000    NaN  Nx:     NaN   dN:       NaN
 TRCHEK2: N2 convergence failed.
 x:  0.14050  0.19081  0.19081  N:    NaN  9.000    NaN  Nx:     NaN   dN:       NaN
 TRCHEK2: N2 convergence failed.
 x:  0.14050  0.19081  0.19081  N:    NaN  9.000    NaN  Nx:     NaN   dN:       NaN
 TRCHEK2: N2 convergence failed.
 x:  0.14050  0.19081  0.19081  N:    NaN  9.000    NaN  Nx:     NaN   dN:       NaN
 TRCHEK2: N2 convergence failed.
 x:  0.14050  0.19081  0.19081  N:    NaN  9.000    NaN  Nx:     NaN   dN:       NaN
 TRCHEK2: N2 convergence failed.
 x:  0.14050  0.19081  0.19081  N:    NaN  9.000    NaN  Nx:     NaN   dN:       NaN
 TRCHEK2: N2 convergence failed.
 x:  0.14050  0.19081  0.19081  N:    NaN  9.000    NaN  Nx:     NaN   dN:       NaN
 TRCHEK2: N2 convergence failed.
 x:  0.14050  0.19081  0.19081  N:    NaN  9.000    NaN  Nx:     NaN   dN:       NaN
 TRCHEK2: N2 convergence failed.
 x:  0.14050  0.19081  0.19081  N:    NaN  9.000    NaN  Nx:     NaN   dN:       NaN
 TRCHEK2: N2 convergence failed.
 x:  0.14050  0.19081  0.19081  N:    NaN  9.000    NaN  Nx:     NaN   dN:       NaN
 TRCHEK2: N2 convergence failed.
 x:  0.14050  0.19081  0.19081  N:    NaN  9.000    NaN  Nx:     NaN   dN:       NaN
 TRCHEK2: N2 convergence failed.
 x:  0.14050  0.19081  0.19081  N:    NaN  9.000    NaN  Nx:     NaN   dN:       NaN
 TRCHEK2: N2 convergence failed.
 x:  0.14050  0.19081  0.19081  N:    NaN  9.000    NaN  Nx:     NaN   dN:       NaN
 TRCHEK2: N2 convergence failed.
 x:  0.14050  0.19081  0.19081  N:    NaN  9.000    NaN  Nx:     NaN   dN:       NaN
 TRCHEK2: N2 convergence failed.
 x:  0.14050  0.19081  0.19081  N:    NaN  9.000    NaN  Nx:     NaN   dN:       NaN
 TRCHEK2: N2 convergence failed.
 x:  0.14050  0.19081  0.19081  N:    NaN  9.000    NaN  Nx:     NaN   dN:       NaN
 TRCHEK2: N2 convergence failed.
 x:  0.14050  0.19081  0.19081  N:    NaN  9.000    NaN  Nx:     NaN   dN:       NaN
 TRCHEK2: N2 convergence failed.
 x:  0.14050  0.19081  0.19081  N:    NaN  9.000    NaN  Nx:     NaN   dN:       NaN
 TRCHEK2: N2 convergence failed.
 x:  0.14050  0.19081  0.19081  N:    NaN  9.000    NaN  Nx:     NaN   dN:       NaN
 TRCHEK2: N2 convergence failed.
 x:  0.14050  0.19081  0.19081  N:    NaN  9.000    NaN  Nx:     NaN   dN:       NaN
 TRCHEK2: N2 convergence failed.
 x:  0.14050  0.19081  0.19081  N:    NaN  9.000    NaN  Nx:     NaN   dN:       NaN
 TRCHEK2: N2 convergence failed.
 x:  0.14050  0.19081  0.19081  N:    NaN  9.000    NaN  Nx:     NaN   dN:       NaN
 TRCHEK2: N2 convergence failed.
 x:  0.14050  0.19081  0.19081  N:    NaN  9.000    NaN  Nx:     NaN   dN:       NaN
 TRCHEK2: N2 convergence failed.
 x:  0.14050  0.19081  0.19081  N:    NaN  9.000    NaN  Nx:     NaN   dN:       NaN
 TRCHEK2: N2 convergence failed.
 x:  0.14050  0.19081  0.19081  N:    NaN  9.000    NaN  Nx:     NaN   dN:       NaN
 TRCHEK2: N2 convergence failed.
 x:  0.14050  0.19081  0.19081  N:    NaN  9.000    NaN  Nx:     NaN   dN:       NaN
 MRCHDU: Convergence failed at   8  side 1    Res =         NaN
 TRCHEK2: N2 convergence failed.
 x:  0.14050  0.19081  0.19081  N:    NaN  9.000    NaN  Nx:     NaN   dN:       NaN
 TRCHEK2: N2 convergence failed.
 x:  0.19081  0.24109  0.24109  N:    NaN  9.000    NaN  Nx:     NaN   dN:       NaN
 TRCHEK2: N2 convergence failed.
 x:  0.19081  0.24109  0.24109  N:    NaN  9.000    NaN  Nx:     NaN   dN:       NaN
 TRCHEK2: N2 convergence failed.
 x:  0.19081  0.24109  0.24109  N:    NaN  9.000    NaN  Nx:     NaN   dN:       NaN
 TRCHEK2: N2 convergence failed.
 x:  0.19081  0.24109  0.24109  N:    NaN  9.000    NaN  Nx:     NaN   dN:       NaN
 TRCHEK2: N2 convergence failed.
 x:  0.19081  0.24109  0.24109  N:    NaN  9.000    NaN  Nx:     NaN   dN:       NaN
 TRCHEK2: N2 convergence failed.
 x:  0.19081  0.24109  0.24109  N:    NaN  9.000    NaN  Nx:     NaN   dN:       NaN
 TRCHEK2: N2 convergence failed.
 x:  0.19081  0.24109  0.24109  N:    NaN  9.000    NaN  Nx:     NaN   dN:       NaN
 TRCHEK2: N2 convergence failed.
 x:  0.19081  0.24109  0.24109  N:    NaN  9.000    NaN  Nx:     NaN   dN:       NaN
 TRCHEK2: N2 convergence failed.
 x:  0.19081  0.24109  0.24109  N:    NaN  9.000    NaN  Nx:     NaN   dN:       NaN
 TRCHEK2: N2 convergence failed.
 x:  0.19081  0.24109  0.24109  N:    NaN  9.000    NaN  Nx:     NaN   dN:       NaN
 TRCHEK2: N2 convergence failed.
 x:  0.19081  0.24109  0.24109  N:    NaN  9.000    NaN  Nx:     NaN   dN:       NaN
 TRCHEK2: N2 convergence failed.
 x:  0.19081  0.24109  0.24109  N:    NaN  9.000    NaN  Nx:     NaN   dN:       NaN
 TRCHEK2: N2 convergence failed.
 x:  0.19081  0.24109  0.24109  N:    NaN  9.000    NaN  Nx:     NaN   dN:       NaN
 TRCHEK2: N2 convergence failed.
 x:  0.19081  0.24109  0.24109  N:    NaN  9.000    NaN  Nx:     NaN   dN:       NaN
 TRCHEK2: N2 convergence failed.
 x:  0.19081  0.24109  0.24109  N:    NaN  9.000    NaN  Nx:     NaN   dN:       NaN
 TRCHEK2: N2 convergence failed.
 x:  0.19081  0.24109  0.24109  N:    NaN  9.000    NaN  Nx:     NaN   dN:       NaN
 TRCHEK2: N2 convergence failed.
 x:  0.19081  0.24109  0.24109  N:    NaN  9.000    NaN  Nx:     NaN   dN:       NaN
 TRCHEK2: N2 convergence failed.
 x:  0.19081  0.24109  0.24109  N:    NaN  9.000    NaN  Nx:     NaN   dN:       NaN
 TRCHEK2: N2 convergence failed.
 x:  0.19081  0.24109  0.24109  N:    NaN  9.000    NaN  Nx:     NaN   dN:       NaN
 TRCHEK2: N2 convergence failed.
 x:  0.19081  0.24109  0.24109  N:    NaN  9.000    NaN  Nx:     NaN   dN:       NaN
 TRCHEK2: N2 convergence failed.
 x:  0.19081  0.24109  0.24109  N:    NaN  9.000    NaN  Nx:     NaN   dN:       NaN
 TRCHEK2: N2 convergence failed.
 x:  0.19081  0.24109  0.24109  N:    NaN  9.000    NaN  Nx:     NaN   dN:       NaN
 TRCHEK2: N2 convergence failed.
 x:  0.19081  0.24109  0.24109  N:    NaN  9.000    NaN  Nx:     NaN   dN:       NaN
 TRCHEK2: N2 convergence failed.
 x:  0.19081  0.24109  0.24109  N:    NaN  9.000    NaN  Nx:     NaN   dN:       NaN
 TRCHEK2: N2 convergence failed.
[...]
 TRCHEK2: N2 convergence failed.
 x:  0.00000  0.00000  0.00000  N:    NaN  9.000    NaN  Nx:     NaN   dN:       NaN
 TRCHEK2: N2 convergence failed.
 x:  0.00000  0.00000  0.00000  N:    NaN  9.000    NaN  Nx:     NaN   dN:       NaN
 TRCHEK2: N2 convergence failed.
 x:  0.00000  0.00000  0.00000  N:    NaN  9.000    NaN  Nx:     NaN   dN:       NaN
 TRCHEK2: N2 convergence failed.
 x:  0.00000  0.00000  0.00000  N:    NaN  9.000    NaN  Nx:     NaN   dN:       NaN
 TRCHEK2: N2 convergence failed.
 x:  0.00000  0.00000  0.00000  N:    NaN  9.000    NaN  Nx:     NaN   dN:       NaN
 TRCHEK2: N2 convergence failed.
 x:  0.00000  0.00000  0.00000  N:    NaN  9.000    NaN  Nx:     NaN   dN:       NaN
 TRCHEK2: N2 convergence failed.
 x:  0.00000  0.00000  0.00000  N:    NaN  9.000    NaN  Nx:     NaN   dN:       NaN
 TRCHEK2: N2 convergence failed.
 x:  0.00000  0.00000  0.00000  N:    NaN  9.000    NaN  Nx:     NaN   dN:       NaN
 TRCHEK2: N2 convergence failed.
 x:  0.00000  0.00000  0.00000  N:    NaN  9.000    NaN  Nx:     NaN   dN:       NaN
 TRCHEK2: N2 convergence failed.
 x:  0.00000  0.00000  0.00000  N:    NaN  9.000    NaN  Nx:     NaN   dN:       NaN
 TRCHEK2: N2 convergence failed.
 x:  0.00000  0.00000  0.00000  N:    NaN  9.000    NaN  Nx:     NaN   dN:       NaN
 TRCHEK2: N2 convergence failed.
 x:  0.00000  0.00000  0.00000  N:    NaN  9.000    NaN  Nx:     NaN   dN:       NaN
 TRCHEK2: N2 convergence failed.
 x:  0.00000  0.00000  0.00000  N:    NaN  9.000    NaN  Nx:     NaN   dN:       NaN
 TRCHEK2: N2 convergence failed.
 x:  0.00000  0.00000  0.00000  N:    NaN  9.000    NaN  Nx:     NaN   dN:       NaN
 TRCHEK2: N2 convergence failed.
 x:  0.00000  0.00000  0.00000  N:    NaN  9.000    NaN  Nx:     NaN   dN:       NaN
 TRCHEK2: N2 convergence failed.
 x:  0.00000  0.00000  0.00000  N:    NaN  9.000    NaN  Nx:     NaN   dN:       NaN
 TRCHEK2: N2 convergence failed.
 x:  0.00000  0.00000  0.00000  N:    NaN  9.000    NaN  Nx:     NaN   dN:       NaN
 MRCHDU: Convergence failed at  14  side 2    Res =         NaN
 TRCHEK2: N2 convergence failed.
 x:  0.00000  0.00000  0.00000  N:    NaN  9.000    NaN  Nx:     NaN   dN:       NaN
 TRCHEK2: N2 convergence failed.
 x:  0.00000  0.00000  0.00000  N:    NaN  9.000    NaN  Nx:     NaN   dN:       NaN
 TRCHEK2: N2 convergence failed.
 x:  0.00000  0.00000  0.00000  N:    NaN  9.000    NaN  Nx:     NaN   dN:       NaN
 TRCHEK2: N2 convergence failed.
 x:  0.00000  0.00000  0.00000  N:    NaN  9.000    NaN  Nx:     NaN   dN:       NaN
 TRCHEK2: N2 convergence failed.
 x:  0.00000  0.00000  0.00000  N:    NaN  9.000    NaN  Nx:     NaN   dN:       NaN
 TRCHEK2: N2 convergence failed.
 x:  0.00000  0.00000  0.00000  N:    NaN  9.000    NaN  Nx:     NaN   dN:       NaN
 TRCHEK2: N2 convergence failed.
 x:  0.00000  0.00000  0.00000  N:    NaN  9.000    NaN  Nx:     NaN   dN:       NaN
 TRCHEK2: N2 convergence failed.
 x:  0.00000  0.00000  0.00000  N:    NaN  9.000    NaN  Nx:     NaN   dN:       NaN
 TRCHEK2: N2 convergence failed.
 x:  0.00000  0.00000  0.00000  N:    NaN  9.000    NaN  Nx:     NaN   dN:       NaN
 TRCHEK2: N2 convergence failed.
 x:  0.00000  0.00000  0.00000  N:    NaN  9.000    NaN  Nx:     NaN   dN:       NaN
 TRCHEK2: N2 convergence failed.
 x:  0.00000  0.00000  0.00000  N:    NaN  9.000    NaN  Nx:     NaN   dN:       NaN
 TRCHEK2: N2 convergence failed.
 x:  0.00000  0.00000  0.00000  N:    NaN  9.000    NaN  Nx:     NaN   dN:       NaN
 TRCHEK2: N2 convergence failed.
 x:  0.00000  0.00000  0.00000  N:    NaN  9.000    NaN  Nx:     NaN   dN:       NaN
 TRCHEK2: N2 convergence failed.
 x:  0.00000  0.00000  0.00000  N:    NaN  9.000    NaN  Nx:     NaN   dN:       NaN
 TRCHEK2: N2 convergence failed.
 x:  0.00000  0.00000  0.00000  N:    NaN  9.000    NaN  Nx:     NaN   dN:       NaN
 TRCHEK2: N2 convergence failed.
 x:  0.00000  0.00000  0.00000  N:    NaN  9.000    NaN  Nx:     NaN   dN:       NaN
 TRCHEK2: N2 convergence failed.
 x:  0.00000  0.00000  0.00000  N:    NaN  9.000    NaN  Nx:     NaN   dN:       NaN
 TRCHEK2: N2 convergence failed.
 x:  0.00000  0.00000  0.00000  N:    NaN  9.000    NaN  Nx:     NaN   dN:       NaN
 TRCHEK2: N2 convergence failed.
 x:  0.00000  0.00000  0.00000  N:    NaN  9.000    NaN  Nx:     NaN   dN:       NaN
 TRCHEK2: N2 convergence failed.
 x:  0.00000  0.00000  0.00000  N:    NaN  9.000    NaN  Nx:     NaN   dN:       NaN
 TRCHEK2: N2 convergence failed.
 x:  0.00000  0.00000  0.00000  N:    NaN  9.000    NaN  Nx:     NaN   dN:       NaN
 TRCHEK2: N2 convergence failed.
 x:  0.00000  0.00000  0.00000  N:    NaN  9.000    NaN  Nx:     NaN   dN:       NaN
 TRCHEK2: N2 convergence failed.
 x:  0.00000  0.00000  0.00000  N:    NaN  9.000    NaN  Nx:     NaN   dN:       NaN
 TRCHEK2: N2 convergence failed.
 x:  0.00000  0.00000  0.00000  N:    NaN  9.000    NaN  Nx:     NaN   dN:       NaN
 TRCHEK2: N2 convergence failed.
 x:  0.00000  0.00000  0.00000  N:    NaN  9.000    NaN  Nx:     NaN   dN:       NaN
 TRCHEK2: N2 convergence failed.
 x:  0.00000  0.00000  0.00000  N:    NaN  9.000    NaN  Nx:     NaN   dN:       NaN
 MRCHDU: Convergence failed at  15  side 2    Res =         NaN
 TRCHEK2: N2 convergence failed.
 x:  0.00000  0.00000  0.00000  N:    NaN  9.000    NaN  Nx:     NaN   dN:       NaN
 TRCHEK2: N2 convergence failed.
 x:  0.00000  0.00000  0.00000  N:    NaN  9.000    NaN  Nx:     NaN   dN:       NaN
 TRCHEK2: N2 convergence failed.
 x:  0.00000  0.00000  0.00000  N:    NaN  9.000    NaN  Nx:     NaN   dN:       NaN
 TRCHEK2: N2 convergence failed.
 x:  0.00000  0.00000  0.00000  N:    NaN  9.000    NaN  Nx:     NaN   dN:       NaN
 TRCHEK2: N2 convergence failed.
 x:  0.00000  0.00000  0.00000  N:    NaN  9.000    NaN  Nx:     NaN   dN:       NaN
 TRCHEK2: N2 convergence failed.
 x:  0.00000  0.00000  0.00000  N:    NaN  9.000    NaN  Nx:     NaN   dN:       NaN
 TRCHEK2: N2 convergence failed.
 x:  0.00000  0.00000  0.00000  N:    NaN  9.000    NaN  Nx:     NaN   dN:       NaN
 TRCHEK2: N2 convergence failed.
 x:  0.00000  0.00000  0.00000  N:    NaN  9.000    NaN  Nx:     NaN   dN:       NaN
 TRCHEK2: N2 convergence failed.
 x:  0.00000  0.00000  0.00000  N:    NaN  9.000    NaN  Nx:     NaN   dN:       NaN
 TRCHEK2: N2 convergence failed.
 x:  0.00000  0.00000  0.00000  N:    NaN  9.000    NaN  Nx:     NaN   dN:       NaN
 TRCHEK2: N2 convergence failed.
 x:  0.00000  0.00000  0.00000  N:    NaN  9.000    NaN  Nx:     NaN   dN:       NaN
 TRCHEK2: N2 convergence failed.
 x:  0.00000  0.00000  0.00000  N:    NaN  9.000    NaN  Nx:     NaN   dN:       NaN
 TRCHEK2: N2 convergence failed.
 x:  0.00000  0.00000  0.00000  N:    NaN  9.000    NaN  Nx:     NaN   dN:       NaN
 TRCHEK2: N2 convergence failed.
 x:  0.00000  0.00000  0.00000  N:    NaN  9.000    NaN  Nx:     NaN   dN:       NaN
 TRCHEK2: N2 convergence failed.
 x:  0.00000  0.00000  0.00000  N:    NaN  9.000    NaN  Nx:     NaN   dN:       NaN
 TRCHEK2: N2 convergence failed.
 x:  0.00000  0.00000  0.00000  N:    NaN  9.000    NaN  Nx:     NaN   dN:       NaN
 TRCHEK2: N2 convergence failed.
 x:  0.00000  0.00000  0.00000  N:    NaN  9.000    NaN  Nx:     NaN   dN:       NaN
 TRCHEK2: N2 convergence failed.
 x:  0.00000  0.00000  0.00000  N:    NaN  9.000    NaN  Nx:     NaN   dN:       NaN
 TRCHEK2: N2 convergence failed.
 x:  0.00000  0.00000  0.00000  N:    NaN  9.000    NaN  Nx:     NaN   dN:       NaN
 TRCHEK2: N2 convergence failed.
 x:  0.00000  0.00000  0.00000  N:    NaN  9.000    NaN  Nx:     NaN   dN:       NaN
 TRCHEK2: N2 convergence failed.
 x:  0.00000  0.00000  0.00000  N:    NaN  9.000    NaN  Nx:     NaN   dN:       NaN
 TRCHEK2: N2 convergence failed.
 x:  0.00000  0.00000  0.00000  N:    NaN  9.000    NaN  Nx:     NaN   dN:       NaN
 TRCHEK2: N2 convergence failed.
 x:  0.00000  0.00000  0.00000  N:    NaN  9.000    NaN  Nx:     NaN   dN:       NaN
 TRCHEK2: N2 convergence failed.
 x:  0.00000  0.00000  0.00000  N:    NaN  9.000    NaN  Nx:     NaN   dN:       NaN
 TRCHEK2: N2 convergence failed.
 x:  0.00000  0.00000  0.00000  N:    NaN  9.000    NaN  Nx:     NaN   dN:       NaN
 TRCHEK2: N2 convergence failed.
 x:  0.00000  0.00000  0.00000  N:    NaN  9.000    NaN  Nx:     NaN   dN:       NaN
 MRCHDU: Convergence failed at  16  side 2    Res =         NaN
 TRCHEK2: N2 convergence failed.
 x:  0.00000  0.00000  0.00000  N:    NaN  9.000    NaN  Nx:     NaN   dN:       NaN
 TRCHEK2: N2 convergence failed.
 x:  0.00000  0.00000  0.00000  N:    NaN  9.000    NaN  Nx:     NaN   dN:       NaN
 TRCHEK2: N2 convergence failed.
 x:  0.00000  0.00000  0.00000  N:    NaN  9.000    NaN  Nx:     NaN   dN:       NaN
 TRCHEK2: N2 convergence failed.
 x:  0.00000  0.00000  0.00000  N:    NaN  9.000    NaN  Nx:     NaN   dN:       NaN
 TRCHEK2: N2 convergence failed.
 x:  0.00000  0.00000  0.00000  N:    NaN  9.000    NaN  Nx:     NaN   dN:       NaN
 TRCHEK2: N2 convergence failed.
 x:  0.00000  0.00000  0.00000  N:    NaN  9.000    NaN  Nx:     NaN   dN:       NaN
 TRCHEK2: N2 convergence failed.
 x:  0.00000  0.00000  0.00000  N:    NaN  9.000    NaN  Nx:     NaN   dN:       NaN
 TRCHEK2: N2 convergence failed.
 x:  0.00000  0.00000  0.00000  N:    NaN  9.000    NaN  Nx:     NaN   dN:       NaN
 TRCHEK2: N2 convergence failed.
 x:  0.00000  0.00000  0.00000  N:    NaN  9.000    NaN  Nx:     NaN   dN:       NaN
 TRCHEK2: N2 convergence failed.
 x:  0.00000  0.00000  0.00000  N:    NaN  9.000    NaN  Nx:     NaN   dN:       NaN
 TRCHEK2: N2 convergence failed.
 x:  0.00000  0.00000  0.00000  N:    NaN  9.000    NaN  Nx:     NaN   dN:       NaN
 TRCHEK2: N2 convergence failed.
 x:  0.00000  0.00000  0.00000  N:    NaN  9.000    NaN  Nx:     NaN   dN:       NaN
 TRCHEK2: N2 convergence failed.
 x:  0.00000  0.00000  0.00000  N:    NaN  9.000    NaN  Nx:     NaN   dN:       NaN
 TRCHEK2: N2 convergence failed.
 x:  0.00000  0.00000  0.00000  N:    NaN  9.000    NaN  Nx:     NaN   dN:       NaN
 TRCHEK2: N2 convergence failed.
 x:  0.00000  0.00000  0.00000  N:    NaN  9.000    NaN  Nx:     NaN   dN:       NaN
 TRCHEK2: N2 convergence failed.
 x:  0.00000  0.00000  0.00000  N:    NaN  9.000    NaN  Nx:     NaN   dN:       NaN
 TRCHEK2: N2 convergence failed.
 x:  0.00000  0.00000  0.00000  N:    NaN  9.000    NaN  Nx:     NaN   dN:       NaN
 TRCHEK2: N2 convergence failed.
 x:  0.00000  0.00000  0.00000  N:    NaN  9.000    NaN  Nx:     NaN   dN:       NaN
 TRCHEK2: N2 convergence failed.
 x:  0.00000  0.00000  0.00000  N:    NaN  9.000    NaN  Nx:     NaN   dN:       NaN
 TRCHEK2: N2 convergence failed.
 x:  0.00000  0.00000  0.00000  N:    NaN  9.000    NaN  Nx:     NaN   dN:       NaN
 TRCHEK2: N2 convergence failed.
 x:  0.00000  0.00000  0.00000  N:    NaN  9.000    NaN  Nx:     NaN   dN:       NaN
 TRCHEK2: N2 convergence failed.
 x:  0.00000  0.00000  0.00000  N:    NaN  9.000    NaN  Nx:     NaN   dN:       NaN
 TRCHEK2: N2 convergence failed.
 x:  0.00000  0.00000  0.00000  N:    NaN  9.000    NaN  Nx:     NaN   dN:       NaN
 TRCHEK2: N2 convergence failed.
 x:  0.00000  0.00000  0.00000  N:    NaN  9.000    NaN  Nx:     NaN   dN:       NaN
 TRCHEK2: N2 convergence failed.
 x:  0.00000  0.00000  0.00000  N:    NaN  9.000    NaN  Nx:     NaN   dN:       NaN
 TRCHEK2: N2 convergence failed.
 x:  0.00000  0.00000  0.00000  N:    NaN  9.000    NaN  Nx:     NaN   dN:       NaN
 MRCHDU: Convergence failed at  17  side 2    Res =         NaN
 TRCHEK2: N2 convergence failed.
 x:  0.00000  0.00000  0.00000  N:    NaN  9.000    NaN  Nx:     NaN   dN:       NaN
 TRCHEK2: N2 convergence failed.
 x:  0.00000  0.00000  0.00000  N:    NaN  9.000    NaN  Nx:     NaN   dN:       NaN
 TRCHEK2: N2 convergence failed.
 x:  0.00000  0.00000  0.00000  N:    NaN  9.000    NaN  Nx:     NaN   dN:       NaN
 TRCHEK2: N2 convergence failed.
 x:  0.00000  0.00000  0.00000  N:    NaN  9.000    NaN  Nx:     NaN   dN:       NaN
 TRCHEK2: N2 convergence failed.
 x:  0.00000  0.00000  0.00000  N:    NaN  9.000    NaN  Nx:     NaN   dN:       NaN
 TRCHEK2: N2 convergence failed.
 x:  0.00000  0.00000  0.00000  N:    NaN  9.000    NaN  Nx:     NaN   dN:       NaN
 TRCHEK2: N2 convergence failed.
 x:  0.00000  0.00000  0.00000  N:    NaN  9.000    NaN  Nx:     NaN   dN:       NaN
 TRCHEK2: N2 convergence failed.
 x:  0.00000  0.00000  0.00000  N:    NaN  9.000    NaN  Nx:     NaN   dN:       NaN
 TRCHEK2: N2 convergence failed.
 x:  0.00000  0.00000  0.00000  N:    NaN  9.000    NaN  Nx:     NaN   dN:       NaN
 TRCHEK2: N2 convergence failed.
 x:  0.00000  0.00000  0.00000  N:    NaN  9.000    NaN  Nx:     NaN   dN:       NaN
 TRCHEK2: N2 convergence failed.
 x:  0.00000  0.00000  0.00000  N:    NaN  9.000    NaN  Nx:     NaN   dN:       NaN
 TRCHEK2: N2 convergence failed.
 x:  0.00000  0.00000  0.00000  N:    NaN  9.000    NaN  Nx:     NaN   dN:       NaN
 TRCHEK2: N2 convergence failed.
 x:  0.00000  0.00000  0.00000  N:    NaN  9.000    NaN  Nx:     NaN   dN:       NaN
 TRCHEK2: N2 convergence failed.
 x:  0.00000  0.00000  0.00000  N:    NaN  9.000    NaN  Nx:     NaN   dN:       NaN
 TRCHEK2: N2 convergence failed.
 x:  0.00000  0.00000  0.00000  N:    NaN  9.000    NaN  Nx:     NaN   dN:       NaN
 TRCHEK2: N2 convergence failed.
 x:  0.00000  0.00000  0.00000  N:    NaN  9.000    NaN  Nx:     NaN   dN:       NaN
 TRCHEK2: N2 convergence failed.
 x:  0.00000  0.00000  0.00000  N:    NaN  9.000    NaN  Nx:     NaN   dN:       NaN
 TRCHEK2: N2 convergence failed.
 x:  0.00000  0.00000  0.00000  N:    NaN  9.000    NaN  Nx:     NaN   dN:       NaN
 TRCHEK2: N2 convergence failed.
 x:  0.00000  0.00000  0.00000  N:    NaN  9.000    NaN  Nx:     NaN   dN:       NaN
 TRCHEK2: N2 convergence failed.
 x:  0.00000  0.00000  0.00000  N:    NaN  9.000    NaN  Nx:     NaN   dN:       NaN
 TRCHEK2: N2 convergence failed.
 x:  0.00000  0.00000  0.00000  N:    NaN  9.000    NaN  Nx:     NaN   dN:       NaN
 TRCHEK2: N2 convergence failed.
 x:  0.00000  0.00000  0.00000  N:    NaN  9.000    NaN  Nx:     NaN   dN:       NaN
 TRCHEK2: N2 convergence failed.
 x:  0.00000  0.00000  0.00000  N:    NaN  9.000    NaN  Nx:     NaN   dN:       NaN
 TRCHEK2: N2 convergence failed.
 x:  0.00000  0.00000  0.00000  N:    NaN  9.000    NaN  Nx:     NaN   dN:       NaN
 TRCHEK2: N2 convergence failed.
 x:  0.00000  0.00000  0.00000  N:    NaN  9.000    NaN  Nx:     NaN   dN:       NaN
 TRCHEK2: N2 convergence failed.
 x:  0.00000  0.00000  0.00000  N:    NaN  9.000    NaN  Nx:     NaN   dN:       NaN
 MRCHDU: Convergence failed at  18  side 2    Res =         NaN
 TRCHEK2: N2 convergence failed.
 x:  0.00000  0.00000  0.00000  N:    NaN  9.000    NaN  Nx:     NaN   dN:       NaN
 TRCHEK2: N2 convergence failed.
 x:  0.00000  0.00000  0.00000  N:    NaN  9.000    NaN  Nx:     NaN   dN:       NaN
 TRCHEK2: N2 convergence failed.
 x:  0.00000  0.00000  0.00000  N:    NaN  9.000    NaN  Nx:     NaN   dN:       NaN
 TRCHEK2: N2 convergence failed.
 x:  0.00000  0.00000  0.00000  N:    NaN  9.000    NaN  Nx:     NaN   dN:       NaN
 TRCHEK2: N2 convergence failed.
 x:  0.00000  0.00000  0.00000  N:    NaN  9.000    NaN  Nx:     NaN   dN:       NaN
 TRCHEK2: N2 convergence failed.
 x:  0.00000  0.00000  0.00000  N:    NaN  9.000    NaN  Nx:     NaN   dN:       NaN
 TRCHEK2: N2 convergence failed.
 x:  0.00000  0.00000  0.00000  N:    NaN  9.000    NaN  Nx:     NaN   dN:       NaN
 TRCHEK2: N2 convergence failed.
 x:  0.00000  0.00000  0.00000  N:    NaN  9.000    NaN  Nx:     NaN   dN:       NaN
 TRCHEK2: N2 convergence failed.
 x:  0.00000  0.00000  0.00000  N:    NaN  9.000    NaN  Nx:     NaN   dN:       NaN
 TRCHEK2: N2 convergence failed.
 x:  0.00000  0.00000  0.00000  N:    NaN  9.000    NaN  Nx:     NaN   dN:       NaN
 TRCHEK2: N2 convergence failed.
 x:  0.00000  0.00000  0.00000  N:    NaN  9.000    NaN  Nx:     NaN   dN:       NaN
 TRCHEK2: N2 convergence failed.
 x:  0.00000  0.00000  0.00000  N:    NaN  9.000    NaN  Nx:     NaN   dN:       NaN
 TRCHEK2: N2 convergence failed.
 x:  0.00000  0.00000  0.00000  N:    NaN  9.000    NaN  Nx:     NaN   dN:       NaN
 TRCHEK2: N2 convergence failed.
 x:  0.00000  0.00000  0.00000  N:    NaN  9.000    NaN  Nx:     NaN   dN:       NaN
 TRCHEK2: N2 convergence failed.
 x:  0.00000  0.00000  0.00000  N:    NaN  9.000    NaN  Nx:     NaN   dN:       NaN
 TRCHEK2: N2 convergence failed.
 x:  0.00000  0.00000  0.00000  N:    NaN  9.000    NaN  Nx:     NaN   dN:       NaN
 TRCHEK2: N2 convergence failed.
 x:  0.00000  0.00000  0.00000  N:    NaN  9.000    NaN  Nx:     NaN   dN:       NaN
 TRCHEK2: N2 convergence failed.
 x:  0.00000  0.00000  0.00000  N:    NaN  9.000    NaN  Nx:     NaN   dN:       NaN
 TRCHEK2: N2 convergence failed.
 x:  0.00000  0.00000  0.00000  N:    NaN  9.000    NaN  Nx:     NaN   dN:       NaN
 TRCHEK2: N2 convergence failed.
 x:  0.00000  0.00000  0.00000  N:    NaN  9.000    NaN  Nx:     NaN   dN:       NaN
 TRCHEK2: N2 convergence failed.
 x:  0.00000  0.00000  0.00000  N:    NaN  9.000    NaN  Nx:     NaN   dN:       NaN
 TRCHEK2: N2 convergence failed.
 x:  0.00000  0.00000  0.00000  N:    NaN  9.000    NaN  Nx:     NaN   dN:       NaN
 TRCHEK2: N2 convergence failed.
 x:  0.00000  0.00000  0.00000  N:    NaN  9.000    NaN  Nx:     NaN   dN:       NaN
 TRCHEK2: N2 convergence failed.
 x:  0.00000  0.00000  0.00000  N:    NaN  9.000    NaN  Nx:     NaN   dN:       NaN
 TRCHEK2: N2 convergence failed.
 x:  0.00000  0.00000  0.00000  N:    NaN  9.000    NaN  Nx:     NaN   dN:       NaN
 TRCHEK2: N2 convergence failed.
 x:  0.00000  0.00000  0.00000  N:    NaN  9.000    NaN  Nx:     NaN   dN:       NaN
 MRCHDU: Convergence failed at  19  side 2    Res =         NaN
 TRCHEK2: N2 convergence failed.
 x:  0.00000  0.00000  0.00000  N:    NaN  9.000    NaN  Nx:     NaN   dN:       NaN
 MRCHDU: Convergence failed at  20  side 2    Res =         NaN
 MRCHDU: Convergence failed at  21  side 2    Res =         NaN
 MRCHDU: Convergence failed at  22  side 2    Res =         NaN
 MRCHDU: Convergence failed at  23  side 2    Res =         NaN
 MRCHDU: Convergence failed at  24  side 2    Res =         NaN
 MRCHDU: Convergence failed at  25  side 2    Res =         NaN
 Side 1  free  transition at x/c =  1.0000   20
 TRCHEK2: N2 convergence failed.
 x:  0.00000  0.00000  0.05023  N:    NaN  9.000    NaN  Nx:     NaN   dN:       NaN
 SETBL: Xtr???  n1 n2:              NaN             NaN
 Side 2  free  transition at x/c =  1.0000   21
 STFIND: Stagnation point not found. Continuing ...

  10   rms:        NaN   max: 0.0000E+00     at    0  0
       a =-99.982      CL =     NaN
      Cm =     NaN     CD =      NaN   =>   CDf =      NaN    CDp =      NaN
 VISCAL:  Convergence failed

.OPERva   c>  
.OPERva   c>  
.OPERva   c>  
        airfoil                    Re           Mach       Ncrit  XtripT  XtripB     file
       ------------------------  ------------  ----------  -----  ------  ------    -------------------
 >  1  oper                      1.000e6       0.000        9.00   1.000   1.000    

Enter polar output filename   s>  
.OPERva   c>  
 ==============================================================
 Polar  1
  
       XFOIL         Version 6.99
  
 Calculated polar for: oper                                            
  
 1 1 Reynolds number fixed          Mach number fixed         
  
 xtrf =   1.000 (top)        1.000 (bottom)  
 Mach =   0.000     Re =     1.000 e 6     Ncrit =   9.000
  
   alpha    CL        CD       CDp       CM     Top_Xtr  Bot_Xtr
  ------ -------- --------- --------- -------- -------- --------

.OPERva   c>  
 XFOIL   c>  