
 ===================================================
  XFOIL Version 6.99
  Copyright (C) 2000   Mark Drela, Harold Youngren

  This software comes with ABSOLUTELY NO WARRANTY,
    subject to the GNU General Public License.

  Caveat computor
 ===================================================

 File  xfoil.def  not found

   QUIT    Exit program

  .OPER    Direct operating point(s)
  .MDES    Complex mapping design routine
  .QDES    Surface speed design routine
  .GDES    Geometry design routine

   SAVE f  Write airfoil to labeled coordinate file
   PSAV f  Write airfoil to plain coordinate file
   ISAV f  Write airfoil to ISES coordinate file
   MSAV f  Write airfoil to MSES coordinate file
   REVE    Reverse written-airfoil node ordering

   LOAD f  Read buffer airfoil from coordinate file
   NACA i  Set NACA 4,5-digit airfoil and buffer airfoil
   INTE    Set buffer airfoil by interpolating two airfoils
   NORM    Buffer airfoil normalization toggle
   XYCM rr Change CM reference location, currently  0.25000 0.00000

   BEND    Display structural properties of current airfoil

   PCOP    Set current-airfoil panel nodes directly from buffer airfoil points
   PANE    Set current-airfoil panel nodes ( 160 ) based on curvature
  .PPAR    Show/change paneling

  .PLOP    Plotting options

   WDEF f  Write  current-settings file
   RDEF f  Reread current-settings file
   NAME s  Specify new airfoil name
   NINC    Increment name version number

   Z       Zoom    | (available in all menus)
   U       Unzoom  | 

 XFOIL   c>   ...............................................

  G raphics-enable flag:        T
  S ize of plot object          10.00"
  A spect ratio of plot object   0.5500
  P age dimensions              11.00 x  8.50"
  M argins from page edges       0.00",  0.00"
  F ont size (relative)          0.0150
  W indow/screen size fraction   0.8000
  B lowup input method:        Cursor    
  O rientation of plot:        Landscape 
  C olor PostScript output?     F

      Option, Value   (or <Return>)    c>   ...............................................

  G raphics-enable flag:        F
  S ize of plot object          10.00"
  A spect ratio of plot object   0.5500
  P age dimensions              11.00 x  8.50"
  M argins from page edges       0.00",  0.00"
  F ont size (relative)          0.0150
  W indow/screen size fraction   0.8000
  B lowup input method:        Cursor    
  O rientation of plot:        Landscape 
  C olor PostScript output?     F

      Option, Value   (or <Return>)    c>  
 XFOIL   c>  
 Plain airfoil file

Enter airfoil name   s>  
 Number of input coordinate points:  51
 Counterclockwise ordering
 Max thickness =     0.099915  at x =   0.399
 Max camber    =     0.012985  at x =   0.550

  LE  x,y  =  -0.00003   0.00063  |   Chord =   1.00003
  TE  x,y  =   1.00000   0.00000  |

 Current airfoil nodes set from buffer airfoil nodes (  51 )

 WARNING: Poor input coordinate distribution
          Excessive panel angle   64.1  at i =  26
          Repaneling with PANE and/or PPAR suggested
           (doing GDES,CADD before repaneling _may_
            improve excessively coarse LE spacing

 XFOIL   c>  
.OPERi   c>   Current iteration limit:          10

Enter new iteration limit   i>  
.OPERi   c>  
 XFOIL   c>  
 XFOIL   c>  
 XFOIL   c>  
.OPERi   c>  
.OPERi   c>  
.OPERi   c>  
 M  =    0.0000
 Re =    100000

.OPERv   c>  
 Polar  1 newly created for accumulation
 Airfoil archived with polar: naca64a210                                      

Enter  polar save filename  OR  <return> for no file   s>  
 Polar save file will NOT be written

Enter  polar dump filename  OR  <return> for no file   s>  
 Polar dump file will NOT be written

 Polar accumulation enabled

.OPERva   c>   Calculating unit vorticity distributions ...
 Calculating wake trajectory ...
 Calculating source influence matrix ...

 Solving BL system ...

 Initializing BL ...
    side            1  ...
 MRCHUE: Inverse mode at   3     Hk =   3.800
 MRCHUE: Inverse mode at  19     Hk =   4.273
 MRCHUE: Inverse mode at  20     Hk =   5.125
 MRCHUE: Inverse mode at  21     Hk =   5.935
 MRCHUE: Inverse mode at  22     Hk =   6.715
 MRCHUE: Inverse mode at  23     Hk =   7.470
 MRCHUE: Inverse mode at  24     Hk =   8.202
 MRCHUE: Inverse mode at  25     Hk =   8.917
 MRCHUE: Inverse mode at  26     Hk =   9.617
    side            2  ...
 MRCHUE: Inverse mode at   4     Hk =   3.800
 MRCHUE: Inverse mode at  19     Hk =   4.093
 MRCHUE: Inverse mode at  20     Hk =   4.932
 MRCHUE: Inverse mode at  21     Hk =   5.727
 MRCHUE: Inverse mode at  22     Hk =   6.487
 MRCHUE: Inverse mode at  23     Hk =   7.220
 MRCHUE: Inverse mode at  24     Hk =   7.934
 MRCHUE: Inverse mode at  25     Hk =   8.632
 MRCHUE: Inverse mode at  26     Hk =   9.315
 MRCHUE: Inverse mode at  27     Hk =   8.763
 MRCHUE: Inverse mode at  29     Hk =   3.931
 MRCHUE: Inverse mode at  30     Hk =   2.786
 MRCHUE: Convergence failed at  31  side 2    Res =  0.1590E+00

 Side 1 forced transition at x/c =  1.0000   26
 Side 2  free  transition at x/c =  0.9874   27

   1   rms: 0.2993E+00   max: -.1282E+01   D at   30  2   RLX: 0.390
       a =  0.000      CL =  0.1840
      Cm = -0.0515     CD =  0.01092   =>   CDf =  0.00724    CDp =  0.00368

 Side 1  free  transition at x/c =  0.9964   26
 Side 2 forced transition at x/c =  1.0000   27

   2   rms: 0.2248E+00   max: -.1088E+01   D at   30  2   RLX: 0.459
       a =  0.000      CL =  0.1224
      Cm = -0.0413     CD =  0.01266   =>   CDf =  0.00721    CDp =  0.00545

 Side 1  free  transition at x/c =  0.9766   26
 Side 2 forced transition at x/c =  1.0000   27

   3   rms: 0.1166E+00   max: -.6715E+00   C at   27  2   RLX: 0.745
       a =  0.000      CL =  0.0835
      Cm = -0.0336     CD =  0.01455   =>   CDf =  0.00725    CDp =  0.00731

 Side 1  free  transition at x/c =  0.9534   26
 Side 2 forced transition at x/c =  1.0000   27

   4   rms: 0.3501E-01   max: -.2813E+00   D at   30  2
       a =  0.000      CL =  0.1011
      Cm = -0.0363     CD =  0.01667   =>   CDf =  0.00725    CDp =  0.00942

 Side 1  free  transition at x/c =  0.9512   26
 Side 2 forced transition at x/c =  1.0000   27

   5   rms: 0.8773E-02   max: 0.8366E-01   C at   27  2
       a =  0.000      CL =  0.1019
      Cm = -0.0363     CD =  0.01684   =>   CDf =  0.00716    CDp =  0.00968

 Side 1  free  transition at x/c =  0.9505   26
 Side 2 forced transition at x/c =  1.0000   27

   6   rms: 0.5607E-03   max: 0.6603E-02   C at   27  2
       a =  0.000      CL =  0.1020
      Cm = -0.0364     CD =  0.01685   =>   CDf =  0.00714    CDp =  0.00970

 Side 1  free  transition at x/c =  0.9506   26
 Side 2 forced transition at x/c =  1.0000   27

   7   rms: 0.4041E-05   max: 0.4567E-04   C at   27  2
       a =  0.000      CL =  0.1020
      Cm = -0.0364     CD =  0.01685   =>   CDf =  0.00714    CDp =  0.00971
 plradd ia,ip,cpol            1          25  0.39954999    

 Point added to stored polar  1
 Save file unspecified or not available
 Dump file unspecified or not available

.OPERva   c>  
.OPERva   c>  
.OPERva   c>   Calculating wake trajectory ...
 Calculating source influence matrix ...

 Solving BL system ...

 Side 1  free  transition at x/c =  0.9506   26
 Side 2 forced transition at x/c =  1.0000   27

   1   rms: 0.2525E+00   max: 0.5511E+00   T at   28  2   RLX: 0.756
       a =  1.000      CL =  0.2612
      Cm = -0.0552     CD =  0.02016   =>   CDf =  0.00709    CDp =  0.01307

 MRCHDU: Convergence failed at  27  side 1    Res =  0.2276E+02
 Side 1  free  transition at x/c =  0.9363   26
 Side 2 forced transition at x/c =  1.0000   26

   2   rms: 0.2875E+00   max: -.2301E+01   C at   26  2   RLX: 0.217
       a =  1.000      CL =  0.2214
      Cm = -0.0481     CD =  0.01164   =>   CDf =  0.00719    CDp =  0.00445

 Side 1  free  transition at x/c =  0.9232   26
 Side 2 forced transition at x/c =  1.0000   26

   3   rms: 0.6143E-01   max: -.4786E+00   D at   27  1
       a =  1.000      CL =  0.2091
      Cm = -0.0397     CD =  0.01796   =>   CDf =  0.00731    CDp =  0.01065

 Side 1  free  transition at x/c =  0.9088   26
 Side 2 forced transition at x/c =  1.0000   26

   4   rms: 0.3153E-01   max: 0.1636E+00   C at   26  2
       a =  1.000      CL =  0.2242
      Cm = -0.0426     CD =  0.01737   =>   CDf =  0.00734    CDp =  0.01004

 Side 1  free  transition at x/c =  0.9117   26
 Side 2 forced transition at x/c =  1.0000   26

   5   rms: 0.1831E-02   max: 0.1958E-01   C at   26  2
       a =  1.000      CL =  0.2250
      Cm = -0.0427     CD =  0.01743   =>   CDf =  0.00730    CDp =  0.01013

 Side 1  free  transition at x/c =  0.9118   26
 Side 2 forced transition at x/c =  1.0000   26

   6   rms: 0.1165E-04   max: 0.9302E-04   C at   26  2
       a =  1.000      CL =  0.2250
      Cm = -0.0427     CD =  0.01743   =>   CDf =  0.00729    CDp =  0.01013
 plradd ia,ip,cpol            2          26  0.29916999    

 Point added to stored polar  1
 Save file unspecified or not available
 Dump file unspecified or not available

.OPERva   c>  
.OPERva   c>  
.OPERva   c>   Calculating wake trajectory ...
 Calculating source influence matrix ...

 Solving BL system ...

 Side 1  free  transition at x/c =  0.9118   26
 Side 2 forced transition at x/c =  1.0000   26

   1   rms: 0.2143E+00   max: 0.2542E+00   T at   27  2   RLX: 0.841
       a =  2.000      CL =  0.3719
      Cm = -0.0557     CD =  0.01849   =>   CDf =  0.00730    CDp =  0.01118

 Side 1  free  transition at x/c =  0.8930   25
 Side 2 forced transition at x/c =  1.0000   26

   2   rms: 0.5489E-01   max: -.3616E+00   C at   26  2
       a =  2.000      CL =  0.3456
      Cm = -0.0473     CD =  0.01857   =>   CDf =  0.00724    CDp =  0.01133

 Side 1  free  transition at x/c =  0.8745   25
 Side 2 forced transition at x/c =  1.0000   26

   3   rms: 0.7251E-02   max: 0.4933E-01   C at   26  2
       a =  2.000      CL =  0.3521
      Cm = -0.0486     CD =  0.01869   =>   CDf =  0.00729    CDp =  0.01140

 Side 1  free  transition at x/c =  0.8745   25
 Side 2 forced transition at x/c =  1.0000   26

   4   rms: 0.8065E-04   max: 0.3552E-03   D at   24  2
       a =  2.000      CL =  0.3521
      Cm = -0.0486     CD =  0.01869   =>   CDf =  0.00727    CDp =  0.01142
 plradd ia,ip,cpol            3          26  4.24000015E-03

 Point added to stored polar  1
 Save file unspecified or not available
 Dump file unspecified or not available

.OPERva   c>  
.OPERva   c>  
.OPERva   c>   Calculating wake trajectory ...
 Calculating source influence matrix ...

 Solving BL system ...

 Side 1  free  transition at x/c =  0.8745   25
 Side 2 forced transition at x/c =  1.0000   26

   1   rms: 0.1868E+00   max: 0.1370E+00   T at   27  2   RLX: 0.977
       a =  3.000      CL =  0.4856
      Cm = -0.0551     CD =  0.01948   =>   CDf =  0.00728    CDp =  0.01220

 Side 1  free  transition at x/c =  0.8404   24
 Side 2 forced transition at x/c =  1.0000   26

   2   rms: 0.2799E-01   max: -.2183E+00   D at   24  1
       a =  3.000      CL =  0.4867
      Cm = -0.0538     CD =  0.01961   =>   CDf =  0.00696    CDp =  0.01264

 Side 1  free  transition at x/c =  0.8379   24
 Side 2 forced transition at x/c =  1.0000   26

   3   rms: 0.3938E-02   max: 0.1995E-01   D at   26  1
       a =  3.000      CL =  0.4852
      Cm = -0.0536     CD =  0.01960   =>   CDf =  0.00694    CDp =  0.01266

 Side 1  free  transition at x/c =  0.8374   24
 Side 2 forced transition at x/c =  1.0000   26

   4   rms: 0.4587E-04   max: 0.3527E-03   D at   26  1
       a =  3.000      CL =  0.4851
      Cm = -0.0536     CD =  0.01960   =>   CDf =  0.00695    CDp =  0.01265
 plradd ia,ip,cpol            4          26  4.24000015E-03

 Point added to stored polar  1
 Save file unspecified or not available
 Dump file unspecified or not available

.OPERva   c>  
.OPERva   c>  
.OPERva   c>   Calculating wake trajectory ...
 Calculating source influence matrix ...

 Solving BL system ...

 Side 1  free  transition at x/c =  0.8373   24
 Side 2 forced transition at x/c =  1.0000   26

   1   rms: 0.1599E+00   max: 0.8526E+00   T at   24  1
       a =  4.000      CL =  0.5617
      Cm = -0.0486     CD =  0.02045   =>   CDf =  0.00696    CDp =  0.01350

 Side 1  free  transition at x/c =  0.7305   22
 Side 2 forced transition at x/c =  1.0000   26

   2   rms: 0.2685E+00   max: 0.1238E+01   C at   26  2   RLX: 0.544
       a =  4.000      CL =  0.6241
      Cm = -0.0482     CD =  0.02097   =>   CDf =  0.00654    CDp =  0.01443

 Side 1  free  transition at x/c =  0.7401   22
 Side 2 forced transition at x/c =  1.0000   26

   3   rms: 0.1026E+00   max: -.5977E+00   D at   23  1   RLX: 0.837
       a =  4.000      CL =  0.6397
      Cm = -0.0506     CD =  0.01558   =>   CDf =  0.00636    CDp =  0.00921

 Side 1  free  transition at x/c =  0.7395   22
 Side 2 forced transition at x/c =  1.0000   26

   4   rms: 0.1975E-01   max: -.9816E-01   D at   23  1
       a =  4.000      CL =  0.6290
      Cm = -0.0496     CD =  0.01551   =>   CDf =  0.00642    CDp =  0.00909

 Side 1  free  transition at x/c =  0.7442   22
 Side 2 forced transition at x/c =  1.0000   26

   5   rms: 0.1678E-02   max: -.1108E-01   C at   26  2
       a =  4.000      CL =  0.6280
      Cm = -0.0494     CD =  0.01551   =>   CDf =  0.00651    CDp =  0.00900

 Side 1  free  transition at x/c =  0.7447   22
 Side 2 forced transition at x/c =  1.0000   26

   6   rms: 0.9360E-05   max: -.8074E-04   D at   22  1
       a =  4.000      CL =  0.6280
      Cm = -0.0494     CD =  0.01551   =>   CDf =  0.00651    CDp =  0.00900
 plradd ia,ip,cpol            5          26  4.24000015E-03

 Point added to stored polar  1
 Save file unspecified or not available
 Dump file unspecified or not available

.OPERva   c>  
.OPERva   c>  
.OPERva   c>   Calculating wake trajectory ...
 Calculating source influence matrix ...

 Solving BL system ...

 Side 1  free  transition at x/c =  0.7447   22
 Side 2 forced transition at x/c =  1.0000   26

   1   rms: 0.2339E+00   max: -.1519E+01   C at   22  1   RLX: 0.329
       a =  5.000      CL =  0.6390
      Cm = -0.0435     CD =  0.01509   =>   CDf =  0.00652    CDp =  0.00857

 Side 1  free  transition at x/c =  0.6739   21
 Side 2 forced transition at x/c =  1.0000   26

   2   rms: 0.2437E+00   max: -.1006E+01   D at   22  1   RLX: 0.497
       a =  5.000      CL =  0.6713
      Cm = -0.0371     CD =  0.01378   =>   CDf =  0.00670    CDp =  0.00708

 Side 1  free  transition at x/c =  0.5133   18
 Side 2 forced transition at x/c =  1.0000   26

   3   rms: 0.2200E+00   max: -.1533E+01   D at   18  1   RLX: 0.326
       a =  5.000      CL =  0.6754
      Cm = -0.0328     CD =  0.01485   =>   CDf =  0.00719    CDp =  0.00766

 Side 1  free  transition at x/c =  0.2513   13
 Side 2 forced transition at x/c =  1.0000   26

   4   rms: 0.4240E+00   max: 0.4689E+01   C at   13  1   RLX: 0.240
       a =  5.000      CL =  0.6646
      Cm = -0.0305     CD =  0.01772   =>   CDf =  0.00878    CDp =  0.00894

 Side 1  free  transition at x/c =  0.1707   11
 Side 2 forced transition at x/c =  1.0000   26

   5   rms: 0.5581E+00   max: 0.6804E+01   C at   11  1   RLX: 0.218
       a =  5.000      CL =  0.6555
      Cm = -0.0293     CD =  0.01852   =>   CDf =  0.00934    CDp =  0.00918

 Side 1  free  transition at x/c =  0.1227   10
 Side 2 forced transition at x/c =  1.0000   26

   6   rms: 0.2856E+00   max: 0.1974E+01   C at   10  1   RLX: 0.313
       a =  5.000      CL =  0.6481
      Cm = -0.0284     CD =  0.01923   =>   CDf =  0.00972    CDp =  0.00951

 Side 1  free  transition at x/c =  0.0910    9
 Side 2 forced transition at x/c =  1.0000   26

   7   rms: 0.8773E-01   max: -.5513E+00   D at   10  1   RLX: 0.907
       a =  5.000      CL =  0.6619
      Cm = -0.0297     CD =  0.01887   =>   CDf =  0.00977    CDp =  0.00911

 Side 1  free  transition at x/c =  0.0731    8
 Side 2 forced transition at x/c =  1.0000   26

   8   rms: 0.1914E-01   max: -.1159E+00   D at   10  1
       a =  5.000      CL =  0.6551
      Cm = -0.0286     CD =  0.01999   =>   CDf =  0.01009    CDp =  0.00990

 Side 1  free  transition at x/c =  0.0741    9
 Side 2 forced transition at x/c =  1.0000   26

   9   rms: 0.8596E-02   max: -.6016E-01   D at    8  1
       a =  5.000      CL =  0.6556
      Cm = -0.0286     CD =  0.01989   =>   CDf =  0.01011    CDp =  0.00978

 Side 1  free  transition at x/c =  0.0745    9
 Side 2 forced transition at x/c =  1.0000   26

  10   rms: 0.2933E-03   max: 0.1084E-02   D at    8  1
       a =  5.000      CL =  0.6556
      Cm = -0.0286     CD =  0.01990   =>   CDf =  0.01013    CDp =  0.00977

 Side 1  free  transition at x/c =  0.0744    9
 Side 2 forced transition at x/c =  1.0000   26

  11   rms: 0.3979E-05   max: -.1553E-04   C at   26  2
       a =  5.000      CL =  0.6556
      Cm = -0.0286     CD =  0.01990   =>   CDf =  0.01013    CDp =  0.00977
 plradd ia,ip,cpol            6          26  4.24000015E-03

 Point added to stored polar  1
 Save file unspecified or not available
 Dump file unspecified or not available

.OPERva   c>  
.OPERva   c>  
.OPERva   c>   Calculating wake trajectory ...
 Calculating source influence matrix ...

 Solving BL system ...

 Side 1  free  transition at x/c =  0.0744    9
 Side 2 forced transition at x/c =  1.0000   26

   1   rms: 0.4357E+00   max: 0.1576E+01   T at    9  1   RLX: 0.856
       a =  6.000      CL =  0.6735
      Cm = -0.0146     CD =  0.03016   =>   CDf =  0.01012    CDp =  0.02004

 Side 1  free  transition at x/c =  0.0649    8
 Side 2 forced transition at x/c =  1.0000   26

   2   rms: 0.1409E+00   max: -.6372E+00   D at    8  1   RLX: 0.785
       a =  6.000      CL =  0.7343
      Cm = -0.0232     CD =  0.02864   =>   CDf =  0.00986    CDp =  0.01878

 Side 1  free  transition at x/c =  0.0602    8
 Side 2 forced transition at x/c =  1.0000   26

   3   rms: 0.3726E-01   max: -.2642E+00   D at    8  1
       a =  6.000      CL =  0.7459
      Cm = -0.0239     CD =  0.02615   =>   CDf =  0.00989    CDp =  0.01627

 Side 1  free  transition at x/c =  0.0588    8
 Side 2 forced transition at x/c =  1.0000   26

   4   rms: 0.5669E-02   max: 0.3195E-01   D at    9  1
       a =  6.000      CL =  0.7456
      Cm = -0.0238     CD =  0.02581   =>   CDf =  0.00988    CDp =  0.01592

 Side 1  free  transition at x/c =  0.0588    8
 Side 2 forced transition at x/c =  1.0000   26

   5   rms: 0.7438E-04   max: -.4304E-03   C at   26  2
       a =  6.000      CL =  0.7455
      Cm = -0.0238     CD =  0.02581   =>   CDf =  0.00987    CDp =  0.01594
 plradd ia,ip,cpol            7          26  4.24000015E-03

 Point added to stored polar  1
 Save file unspecified or not available
 Dump file unspecified or not available

.OPERva   c>  
.OPERva   c>  
.OPERva   c>   Calculating wake trajectory ...
 Calculating source influence matrix ...

 Solving BL system ...

 Side 1  free  transition at x/c =  0.0588    8
 Side 2 forced transition at x/c =  1.0000   26

   1   rms: 0.2217E+00   max: 0.3359E+00   D at   33  2
       a =  7.000      CL =  0.8539
      Cm = -0.0214     CD =  0.03351   =>   CDf =  0.00953    CDp =  0.02398

 Side 1  free  transition at x/c =  0.0636   10
 Side 2 forced transition at x/c =  1.0000   24

   2   rms: 0.2576E+00   max: 0.8768E+00   D at   10  1   RLX: 0.692
       a =  7.000      CL =  0.8517
      Cm = -0.0200     CD =  0.03711   =>   CDf =  0.00848    CDp =  0.02863

 Side 1  free  transition at x/c =  0.0636   10
 Side 2 forced transition at x/c =  1.0000   24

   3   rms: 0.9107E-01   max: -.3186E+00   D at    4  1
       a =  7.000      CL =  0.8419
      Cm = -0.0186     CD =  0.03798   =>   CDf =  0.00824    CDp =  0.02974

 MRCHDU: Convergence failed at   5  side 1    Res =  0.1410E+01
 Side 1  free  transition at x/c =  0.0407    9
 Side 2 forced transition at x/c =  1.0000   24

   4   rms: 0.1896E+00   max: -.8154E+00   D at   10  1   RLX: 0.613
       a =  7.000      CL =  0.8013
      Cm = -0.0283     CD =  0.03534   =>   CDf =  0.01065    CDp =  0.02469

 MRCHDU: Convergence failed at   5  side 1    Res =  0.1062E+01
 Side 1  free  transition at x/c =  0.0509   10
 Side 2 forced transition at x/c =  1.0000   24

   5   rms: 0.4461E+00   max: -.2907E+01   T at   10  1   RLX: 0.172
       a =  7.000      CL =  0.8008
      Cm = -0.0336     CD =  0.02069   =>   CDf =  0.01123    CDp =  0.00946

 MRCHDU: Convergence failed at   5  side 1    Res =  0.4838E+01
 Side 1  free  transition at x/c =  0.0582   10
 Side 2 forced transition at x/c =  1.0000   24

   6   rms: 0.1684E+00   max: -.1079E+01   T at   10  1   RLX: 0.463
       a =  7.000      CL =  0.8224
      Cm = -0.0292     CD =  0.02310   =>   CDf =  0.01075    CDp =  0.01236

 MRCHDU: Convergence failed at   5  side 1    Res =  0.1211E+01
 Side 1  free  transition at x/c =  0.0662   10
 Side 2 forced transition at x/c =  1.0000   24

   7   rms: 0.1158E+00   max: -.5136E+00   D at   10  1   RLX: 0.974
       a =  7.000      CL =  0.8390
      Cm = -0.0249     CD =  0.02538   =>   CDf =  0.01052    CDp =  0.01486

 MRCHDU: Convergence failed at   6  side 1    Res =  0.6785E+01
 MRCHDU: Convergence failed at   7  side 1    Res =  0.3256E+01
 MRCHDU: Convergence failed at   8  side 1    Res =  0.4699E+01
 MRCHDU: Convergence failed at   9  side 1    Res =  0.1823E+01
 MRCHDU: Convergence failed at  11  side 1    Res =  0.2424E+02
 MRCHDU: Convergence failed at  12  side 1    Res =  0.2528E+02
 MRCHDU: Convergence failed at  13  side 1    Res =  0.3082E+02
 MRCHDU: Convergence failed at  14  side 1    Res =  0.2698E+02
 MRCHDU: Convergence failed at  15  side 1    Res =  0.2982E+02
 MRCHDU: Convergence failed at  16  side 1    Res =  0.2942E+02
 MRCHDU: Convergence failed at  17  side 1    Res =  0.2129E+02
 MRCHDU: Convergence failed at  18  side 1    Res =  0.1957E+02
 MRCHDU: Convergence failed at  19  side 1    Res =  0.3949E+02
 MRCHDU: Convergence failed at  20  side 1    Res =  0.2167E+02
 MRCHDU: Convergence failed at  21  side 1    Res =  0.2838E+02
 MRCHDU: Convergence failed at  22  side 1    Res =  0.3519E+02
 MRCHDU: Convergence failed at  23  side 1    Res =  0.3759E+02
 MRCHDU: Convergence failed at  24  side 1    Res =  0.7087E+02
 MRCHDU: Convergence failed at  25  side 1    Res =  0.1406E+03
 MRCHDU: Convergence failed at  26  side 1    Res =  0.1434E+03
 MRCHDU: Convergence failed at  27  side 1    Res =  0.8939E+02
 MRCHDU: Convergence failed at  28  side 1    Res =  0.8143E+02
 MRCHDU: Convergence failed at  29  side 1    Res =  0.1438E+03
 Side 1  free  transition at x/c =  0.0346    9
 Side 2 forced transition at x/c =  1.0000   24

   8   rms: 0.1272E+01   max: 0.3280E+01   D at   26  2   RLX: 0.187
       a =  7.000      CL =  3.1235
      Cm = -0.7040     CD =  0.00871   =>   CDf =  0.00333    CDp =  0.00538

 MRCHDU: Convergence failed at  14  side 1    Res =  0.1525E+00
 MRCHDU: Convergence failed at  15  side 1    Res =  0.1856E+00
 MRCHDU: Convergence failed at  16  side 1    Res =  0.1831E+00
 MRCHDU: Convergence failed at  17  side 1    Res =  0.1717E+00
 MRCHDU: Convergence failed at  19  side 1    Res =  0.7069E-01
 Side 1  free  transition at x/c =  0.1355   12
 Side 2 forced transition at x/c =  1.0000   24

   9   rms: 0.7570E+00   max: -.1510E+01   C at   24  2   RLX: 0.207
       a =  7.000      CL =  2.0277
      Cm = -0.3659     CD =  0.03919   =>   CDf =  0.00794    CDp =  0.03126

 Side 1  free  transition at x/c =  0.1403   12
 Side 2 forced transition at x/c =  1.0000   24
 idif Ue xi dudx           1  0.24992168      7.08436966E-03   35.277901    
 Uenew xinew           2  5.41578308E-02  1.53517723E-03

  10   rms: 0.7961E+00   max: 0.1276E+01   D at   28  2   RLX: 0.318
       a =  7.000      CL =  1.4287
      Cm = -0.2517     CD =  0.05124   =>   CDf =  0.00814    CDp =  0.04310

 MRCHDU: Convergence failed at  12  side 1    Res =  0.1958E+02
 MRCHDU: Convergence failed at  13  side 1    Res =  0.1683E+02
 MRCHDU: Convergence failed at  14  side 1    Res =  0.5100E+01
 MRCHDU: Convergence failed at  15  side 1    Res =  0.7870E+01
 MRCHDU: Convergence failed at  16  side 1    Res =  0.2764E+02
 MRCHDU: Convergence failed at  17  side 1    Res =  0.1180E+02
 MRCHDU: Convergence failed at  18  side 1    Res =  0.7214E+03
 MRCHDU: Convergence failed at  19  side 1    Res =  0.7629E+01
 MRCHDU: Convergence failed at  20  side 1    Res =  0.1145E+02
 MRCHDU: Convergence failed at  21  side 1    Res =  0.3509E+01
 MRCHDU: Convergence failed at  22  side 1    Res =  0.2426E+01
 MRCHDU: Convergence failed at  23  side 1    Res =  0.1870E+01
 MRCHDU: Convergence failed at  24  side 1    Res =  0.2406E+01
 MRCHDU: Convergence failed at  25  side 1    Res =  0.3165E+01
 MRCHDU: Convergence failed at  26  side 1    Res =  0.4297E+01
 MRCHDU: Convergence failed at  27  side 1    Res =  0.6067E+01
 MRCHDU: Convergence failed at  28  side 1    Res =  0.3589E+02
 Side 1 forced transition at x/c =  1.0000   28
 Side 2 forced transition at x/c =  1.0000   25

  11   rms: 0.7939E+00   max: -.9713E+00   D at   28  2   RLX: 0.450
       a =  7.000      CL =  1.6601
      Cm = -0.2818     CD =  0.00800   =>   CDf =  0.01176    CDp = -0.00375

 MRCHDU: Convergence failed at   9  side 1    Res =  0.1280E+01
 MRCHDU: Convergence failed at  10  side 1    Res =  0.2217E+01
 MRCHDU: Convergence failed at  11  side 1    Res =  0.1220E+01
 MRCHDU: Convergence failed at  12  side 1    Res =  0.1926E+01
 MRCHDU: Convergence failed at  13  side 1    Res =  0.1567E+01
 MRCHDU: Convergence failed at  14  side 1    Res =  0.1937E+01
 MRCHDU: Convergence failed at  15  side 1    Res =  0.2380E+01
 MRCHDU: Convergence failed at  16  side 1    Res =  0.2940E+01
 MRCHDU: Convergence failed at  17  side 1    Res =  0.3535E+01
 MRCHDU: Convergence failed at  18  side 1    Res =  0.4697E+01
 MRCHDU: Convergence failed at  19  side 1    Res =  0.7049E+01
 MRCHDU: Convergence failed at  20  side 1    Res =  0.1047E+02
 MRCHDU: Convergence failed at  21  side 1    Res =  0.2366E+02
 MRCHDU: Convergence failed at  22  side 1    Res =  0.1424E+03
 MRCHDU: Convergence failed at  23  side 1    Res =  0.2359E+02
 MRCHDU: Convergence failed at  24  side 1    Res =  0.1213E+02
 MRCHDU: Convergence failed at  25  side 1    Res =  0.7363E+01
 MRCHDU: Convergence failed at  26  side 1    Res =  0.6479E+01
 MRCHDU: Convergence failed at  27  side 1    Res =  0.1172E+02
 MRCHDU: Convergence failed at  28  side 1    Res =  0.1677E+02
 MRCHDU: Convergence failed at  29  side 1    Res =  0.5970E+02
 Side 1  free  transition at x/c =  0.0517   10
 Side 2 forced transition at x/c =  1.0000   24

  12   rms: 0.1216E+01   max: 0.1788E+01   C at   25  2   RLX: 0.299
       a =  7.000      CL =  2.4945
      Cm = -0.5272     CD =  0.00837   =>   CDf =  0.00386    CDp =  0.00451

 Side 1  free  transition at x/c =  0.0394    9
 Side 2 forced transition at x/c =  1.0000   24

  13   rms: 0.7677E+00   max: 0.1522E+01   C at   24  2   RLX: 0.329
       a =  7.000      CL =  1.9008
      Cm = -0.3350     CD =  0.01234   =>   CDf =  0.01963    CDp = -0.00728

 Side 1  free  transition at x/c =  0.0341    9
 Side 2 forced transition at x/c =  1.0000   24

  14   rms: 0.5731E+00   max: 0.8194E+00   D at   25  2   RLX: 0.510
       a =  7.000      CL =  1.3666
      Cm = -0.1669     CD =  0.01728   =>   CDf =  0.01551    CDp =  0.00178

 Side 1  free  transition at x/c =  0.0324    9
 Side 2 forced transition at x/c =  1.0000   24

  15   rms: 0.3451E+00   max: 0.5439E+00   D at   31  2   RLX: 1.000
       a =  7.000      CL =  0.8666
      Cm = -0.0223     CD =  0.02996   =>   CDf =  0.01192    CDp =  0.01804

 Side 1  free  transition at x/c =  0.0348    9
 Side 2 forced transition at x/c =  1.0000   24

  16   rms: 0.5186E-01   max: 0.2294E+00   D at   10  1
       a =  7.000      CL =  0.8362
      Cm = -0.0192     CD =  0.03719   =>   CDf =  0.00826    CDp =  0.02893

 Side 1  free  transition at x/c =  0.0367    9
 Side 2 forced transition at x/c =  1.0000   24

  17   rms: 0.9705E-02   max: -.4802E-01   C at   24  2
       a =  7.000      CL =  0.8325
      Cm = -0.0184     CD =  0.03698   =>   CDf =  0.00830    CDp =  0.02867

 Side 1  free  transition at x/c =  0.0369    9
 Side 2 forced transition at x/c =  1.0000   24

  18   rms: 0.2260E-03   max: -.1717E-02   C at   24  2
       a =  7.000      CL =  0.8324
      Cm = -0.0184     CD =  0.03697   =>   CDf =  0.00826    CDp =  0.02871

 Side 1  free  transition at x/c =  0.0369    9
 Side 2 forced transition at x/c =  1.0000   24

  19   rms: 0.7290E-06   max: -.3934E-05   C at   24  2
       a =  7.000      CL =  0.8324
      Cm = -0.0184     CD =  0.03697   =>   CDf =  0.00826    CDp =  0.02871
 plradd ia,ip,cpol            8          28  4.24000015E-03

 Point added to stored polar  1
 Save file unspecified or not available
 Dump file unspecified or not available

.OPERva   c>  
.OPERva   c>  
.OPERva   c>   Calculating wake trajectory ...
 Calculating source influence matrix ...

 Solving BL system ...

 Side 1  free  transition at x/c =  0.0369    9
 Side 2 forced transition at x/c =  1.0000   24

   1   rms: 0.1818E+00   max: 0.4156E+00   D at   13  1
       a =  8.000      CL =  0.9082
      Cm = -0.0133     CD =  0.04649   =>   CDf =  0.00828    CDp =  0.03822

 Side 1  free  transition at x/c =  0.0353    9
 Side 2 forced transition at x/c =  1.0000   24

   2   rms: 0.6400E-01   max: 0.2507E+00   D at    9  1
       a =  8.000      CL =  0.8816
      Cm = -0.0113     CD =  0.05101   =>   CDf =  0.00671    CDp =  0.04431

 Side 1  free  transition at x/c =  0.0372    9
 Side 2 forced transition at x/c =  1.0000   24

   3   rms: 0.1001E-01   max: 0.3319E-01   D at   29  1
       a =  8.000      CL =  0.8836
      Cm = -0.0113     CD =  0.05036   =>   CDf =  0.00690    CDp =  0.04346

 Side 1  free  transition at x/c =  0.0370    9
 Side 2 forced transition at x/c =  1.0000   24

   4   rms: 0.3195E-03   max: -.1456E-02   D at   29  1
       a =  8.000      CL =  0.8834
      Cm = -0.0113     CD =  0.05035   =>   CDf =  0.00682    CDp =  0.04353

 Side 1  free  transition at x/c =  0.0370    9
 Side 2 forced transition at x/c =  1.0000   24

   5   rms: 0.9833E-06   max: 0.2954E-05   D at   28  2
       a =  8.000      CL =  0.8834
      Cm = -0.0113     CD =  0.05035   =>   CDf =  0.00682    CDp =  0.04353
 plradd ia,ip,cpol            9          28  4.24000015E-03

 Point added to stored polar  1
 Save file unspecified or not available
 Dump file unspecified or not available

.OPERva   c>  
.OPERva   c>  
.OPERva   c>   Calculating wake trajectory ...
 Calculating source influence matrix ...

 Solving BL system ...

 Side 1  free  transition at x/c =  0.0370    9
 Side 2 forced transition at x/c =  1.0000   24

   1   rms: 0.2144E+00   max: 0.5454E+00   D at   24  1
       a =  9.000      CL =  0.9047
      Cm = -0.0029     CD =  0.06763   =>   CDf =  0.00684    CDp =  0.06079

 Side 1  free  transition at x/c =  0.0518   10
 Side 2 forced transition at x/c =  1.0000   24

   2   rms: 0.5259E+00   max: 0.3864E+01   T at   10  1   RLX: 0.388
       a =  9.000      CL =  0.9503
      Cm = -0.0076     CD =  0.06968   =>   CDf =  0.00533    CDp =  0.06435

 MRCHDU: Convergence failed at  10  side 1    Res =  0.1044E+03
 MRCHDU: Convergence failed at  11  side 1    Res =  0.6705E+02
 MRCHDU: Convergence failed at  12  side 1    Res =  0.6229E+04
 MRCHDU: Convergence failed at  13  side 1    Res =  0.8844E+02
 MRCHDU: Convergence failed at  14  side 1    Res =  0.6361E+02
 MRCHDU: Convergence failed at  15  side 1    Res =  0.6405E+02
 MRCHDU: Convergence failed at  16  side 1    Res =  0.5663E+02
 MRCHDU: Convergence failed at  17  side 1    Res =  0.5533E+02
 MRCHDU: Convergence failed at  18  side 1    Res =  0.5662E+02
 MRCHDU: Convergence failed at  19  side 1    Res =  0.7163E+02
 MRCHDU: Convergence failed at  20  side 1    Res =  0.7301E+02
 MRCHDU: Convergence failed at  21  side 1    Res =  0.7067E+02
 MRCHDU: Convergence failed at  22  side 1    Res =  0.8797E+02
 MRCHDU: Convergence failed at  23  side 1    Res =  0.1394E+03
 MRCHDU: Convergence failed at  24  side 1    Res =  0.3819E+03
 MRCHDU: Convergence failed at  25  side 1    Res =  0.9408E+03
 MRCHDU: Convergence failed at  26  side 1    Res =  0.2617E+03
 MRCHDU: Convergence failed at  27  side 1    Res =  0.2070E+03
 MRCHDU: Convergence failed at  28  side 1    Res =  0.3507E+03
 MRCHDU: Convergence failed at  29  side 1    Res =  0.2945E+03
 Side 1  free  transition at x/c =  0.0452    9
 Side 2 forced transition at x/c =  1.0000   24

   3   rms: 0.2220E+01   max: 0.1521E+02   D at   26  2   RLX: 0.075
       a =  9.000      CL =  3.1589
      Cm = -0.7490     CD =  0.00983   =>   CDf =  0.00360    CDp =  0.00623

 Side 1  free  transition at x/c =  0.0429    9
 Side 2 forced transition at x/c =  1.0000   24

   4   rms: 0.1270E+01   max: 0.6624E+01   D at   28  2   RLX: 0.130
       a =  9.000      CL =  2.4657
      Cm = -0.5189     CD =  0.12080   =>   CDf =  0.00439    CDp =  0.11641

 Side 1  free  transition at x/c =  0.0504   10
 Side 2 forced transition at x/c =  1.0000   24

   5   rms: 0.1364E+01   max: -.6838E+01   T at   10  1   RLX: 0.073
       a =  9.000      CL =  2.2946
      Cm = -0.4823     CD =  0.14188   =>   CDf =  0.00465    CDp =  0.13724

 Side 1  free  transition at x/c =  0.0541   10
 Side 2 forced transition at x/c =  1.0000   24

   6   rms: 0.6499E+01   max: -.7181E+02   T at   10  1   RLX: 0.007
       a =  9.000      CL =  2.2944
      Cm = -0.4859     CD =  0.14930   =>   CDf =  0.00478    CDp =  0.14452

 Side 1  free  transition at x/c =  0.0530   10
 Side 2 forced transition at x/c =  1.0000   24

   7   rms: 0.7983E+00   max: 0.3815E+01   T at   10  1   RLX: 0.293
       a =  9.000      CL =  1.7524
      Cm = -0.3478     CD =  0.17817   =>   CDf =  0.00481    CDp =  0.17336

 Side 1  free  transition at x/c =  0.0453    9
 Side 2 forced transition at x/c =  1.0000   24
 idif Ue xi dudx           2  0.27683407      8.60762596E-03   32.161488    
 Uenew xinew           3  9.83637720E-02  3.05843353E-03

   8   rms: 0.6077E+00   max: 0.9046E+00   C at   24  2   RLX: 0.385
       a =  9.000      CL =  1.2411
      Cm = -0.2174     CD =  0.18183   =>   CDf =  0.00529    CDp =  0.17655

 Side 1  free  transition at x/c =  0.0685    8
 Side 2 forced transition at x/c =  1.0000   26

   9   rms: 0.1999E+01   max: -.1927E+02   D at    2  2   RLX: 0.026
       a =  9.000      CL =  1.2263
      Cm = -0.2127     CD =  0.19425   =>   CDf =  0.00575    CDp =  0.18850

 Side 1  free  transition at x/c =  0.0684    8
 Side 2 forced transition at x/c =  1.0000   26

  10   rms: 0.3898E+00   max: 0.7577E+00   D at    3  2   RLX: 0.713
       a =  9.000      CL =  0.7147
      Cm = -0.0800     CD =  0.15718   =>   CDf =  0.00575    CDp =  0.15143

 Side 1  free  transition at x/c =  0.0670    8
 Side 2 forced transition at x/c =  1.0000   26

  11   rms: 0.2566E+00   max: -.7423E+00   D at   12  1   RLX: 0.674
       a =  9.000      CL =  0.6254
      Cm = -0.0309     CD =  0.12606   =>   CDf =  0.00574    CDp =  0.12032

 Side 1  free  transition at x/c =  0.0682    8
 Side 2 forced transition at x/c =  1.0000   26

  12   rms: 0.3489E+00   max: -.8339E+00   D at   33  2   RLX: 0.596
       a =  9.000      CL =  0.6811
      Cm = -0.0018     CD =  0.09420   =>   CDf =  0.00532    CDp =  0.08888

 Side 1  free  transition at x/c =  0.0720   10
 Side 2 forced transition at x/c =  1.0000   24

  13   rms: 0.5640E+01   max: 0.5334E+02   T at    2  1   RLX: 0.019
       a =  9.000      CL =  0.6476
      Cm =  0.0119     CD =  0.08186   =>   CDf =  0.00613    CDp =  0.07573

 Side 1  free  transition at x/c =  0.0720   10
 Side 2 forced transition at x/c =  1.0000   24

  14   rms: 0.3405E+00   max: -.6978E+00   D at   30  2   RLX: 0.603
       a =  9.000      CL =  0.8739
      Cm = -0.0105     CD =  0.07787   =>   CDf =  0.00614    CDp =  0.07173

 MRCHDU: Convergence failed at   5  side 1    Res =  0.1020E+01
 MRCHDU: Convergence failed at  12  side 1    Res =  0.2168E+01
 MRCHDU: Convergence failed at  13  side 1    Res =  0.2375E+02
 MRCHDU: Convergence failed at  14  side 1    Res =  0.5478E+02
 MRCHDU: Convergence failed at  15  side 1    Res =  0.4163E+02
 MRCHDU: Convergence failed at  16  side 1    Res =  0.6107E+02
 MRCHDU: Convergence failed at  17  side 1    Res =  0.2849E+02
 MRCHDU: Convergence failed at  18  side 1    Res =  0.1340E+02
 MRCHDU: Convergence failed at  19  side 1    Res =  0.1341E+02
 MRCHDU: Convergence failed at  20  side 1    Res =  0.1478E+02
 MRCHDU: Convergence failed at  21  side 1    Res =  0.2146E+02
 MRCHDU: Convergence failed at  22  side 1    Res =  0.2163E+02
 MRCHDU: Convergence failed at  23  side 1    Res =  0.2638E+02
 MRCHDU: Convergence failed at  24  side 1    Res =  0.3145E+02
 MRCHDU: Convergence failed at  25  side 1    Res =  0.1799E+02
 MRCHDU: Convergence failed at  26  side 1    Res =  0.1369E+02
 MRCHDU: Convergence failed at  27  side 1    Res =  0.1418E+02
 MRCHDU: Convergence failed at  28  side 1    Res =  0.1534E+02
 MRCHDU: Convergence failed at  29  side 1    Res =  0.1578E+02
 Side 1  free  transition at x/c =  0.0466    9
 Side 2 forced transition at x/c =  1.0000   24

  15   rms: 0.4850E+01   max: 0.3653E+02   T at   10  1   RLX: 0.041
       a =  9.000      CL =  2.2423
      Cm = -0.5304     CD =  0.04240   =>   CDf =  0.00525    CDp =  0.03716

 MRCHDU: Convergence failed at  11  side 1    Res =  0.4900E+02
 Side 1  free  transition at x/c =  0.0632   10
 Side 2 forced transition at x/c =  1.0000   24

  16   rms: 0.9626E+00   max: 0.1801E+01   C at   24  2   RLX: 0.262
       a =  9.000      CL =  1.9509
      Cm = -0.3585     CD =  0.01793   =>   CDf =  0.01754    CDp =  0.00039

 Side 1  free  transition at x/c =  0.0486    9
 Side 2 forced transition at x/c =  1.0000   24

  17   rms: 0.9388E+00   max: -.5702E+01   T at   10  1   RLX: 0.088
       a =  9.000      CL =  1.8865
      Cm = -0.3206     CD =  0.05218   =>   CDf =  0.01067    CDp =  0.04150

 Side 1  free  transition at x/c =  0.0484    9
 Side 2 forced transition at x/c =  1.0000   24

  18   rms: 0.5737E+00   max: -.3011E+01   T at   10  1   RLX: 0.166
       a =  9.000      CL =  1.7512
      Cm = -0.2618     CD =  0.06231   =>   CDf =  0.00849    CDp =  0.05382

 Side 1  free  transition at x/c =  0.0492   10
 Side 2 forced transition at x/c =  1.0000   24

  19   rms: 0.4525E+00   max: 0.4292E+00   C at   24  2   RLX: 0.544
       a =  9.000      CL =  1.2396
      Cm = -0.1242     CD =  0.10072   =>   CDf =  0.00612    CDp =  0.09460

 Side 1  free  transition at x/c =  0.0501   10
 Side 2 forced transition at x/c =  1.0000   24

  20   rms: 0.2640E+00   max: 0.1048E+01   T at   10  1   RLX: 0.598
       a =  9.000      CL =  1.0214
      Cm = -0.0583     CD =  0.08771   =>   CDf =  0.00659    CDp =  0.08112

 Side 1  free  transition at x/c =  0.0523   10
 Side 2 forced transition at x/c =  1.0000   24

  21   rms: 0.4125E+00   max: 0.2469E+01   T at   10  1   RLX: 0.608
       a =  9.000      CL =  0.9951
      Cm = -0.0344     CD =  0.06808   =>   CDf =  0.00787    CDp =  0.06021

 MRCHDU: Convergence failed at  10  side 1    Res =  0.8151E+02
 MRCHDU: Convergence failed at  11  side 1    Res =  0.3416E+03
 MRCHDU: Convergence failed at  12  side 1    Res =  0.9329E+02
 MRCHDU: Convergence failed at  13  side 1    Res =  0.3081E+03
 MRCHDU: Convergence failed at  14  side 1    Res =  0.1292E+04
 MRCHDU: Convergence failed at  15  side 1    Res =  0.9276E+02
 MRCHDU: Convergence failed at  16  side 1    Res =  0.8497E+02
 MRCHDU: Convergence failed at  17  side 1    Res =  0.1003E+03
 MRCHDU: Convergence failed at  18  side 1    Res =  0.1142E+03
 MRCHDU: Convergence failed at  19  side 1    Res =  0.9327E+02
 MRCHDU: Convergence failed at  20  side 1    Res =  0.5730E+02
 MRCHDU: Convergence failed at  21  side 1    Res =  0.6740E+02
 MRCHDU: Convergence failed at  22  side 1    Res =  0.1071E+03
 MRCHDU: Convergence failed at  23  side 1    Res =  0.6695E+02
 MRCHDU: Convergence failed at  24  side 1    Res =  0.1019E+03
 MRCHDU: Convergence failed at  25  side 1    Res =  0.1356E+03
 MRCHDU: Convergence failed at  26  side 1    Res =  0.1352E+03
 MRCHDU: Convergence failed at  27  side 1    Res =  0.3080E+03
 MRCHDU: Convergence failed at  28  side 1    Res =  0.1606E+04
 MRCHDU: Convergence failed at  29  side 1    Res =  0.1276E+03
 Side 1  free  transition at x/c =  0.0480    9
 Side 2 forced transition at x/c =  1.0000   24

  22   rms: 0.2429E+01   max: 0.1728E+02   D at   26  2   RLX: 0.062
       a =  9.000      CL =  2.9668
      Cm = -0.7032     CD =  0.00799   =>   CDf =  0.00361    CDp =  0.00439

 Side 1  free  transition at x/c =  0.0475    9
 Side 2 forced transition at x/c =  1.0000   24

  23   rms: 0.2526E+01   max: 0.1839E+02   T at   10  1   RLX: 0.082
       a =  9.000      CL =  2.3744
      Cm = -0.4997     CD =  0.11831   =>   CDf =  0.00441    CDp =  0.11390

 Side 1  free  transition at x/c =  0.0480    9
 Side 2 forced transition at x/c =  1.0000   24

  24   rms: 0.1316E+01   max: -.4601E+01   T at   10  1   RLX: 0.109
       a =  9.000      CL =  2.3165
      Cm = -0.4883     CD =  0.14433   =>   CDf =  0.00458    CDp =  0.13976

 Side 1  free  transition at x/c =  0.0478    9
 Side 2 forced transition at x/c =  1.0000   24

  25   rms: 0.3555E+01   max: -.2289E+02   T at   10  1   RLX: 0.022
       a =  9.000      CL =  2.3085
      Cm = -0.4940     CD =  0.16323   =>   CDf =  0.00485    CDp =  0.15838

 Side 1  free  transition at x/c =  0.0474    9
 Side 2 forced transition at x/c =  1.0000   24

  26   rms: 0.2769E+01   max: -.2520E+02   T at   10  1   RLX: 0.020
       a =  9.000      CL =  2.2896
      Cm = -0.4936     CD =  0.17543   =>   CDf =  0.00490    CDp =  0.17053

 Side 1  free  transition at x/c =  0.0469    9
 Side 2 forced transition at x/c =  1.0000   24

  27   rms: 0.3292E+01   max: -.4242E+02   T at   10  1   RLX: 0.012
       a =  9.000      CL =  2.2714
      Cm = -0.4912     CD =  0.18288   =>   CDf =  0.00494    CDp =  0.17795

 Side 1  free  transition at x/c =  0.0462    9
 Side 2 forced transition at x/c =  1.0000   24

  28   rms: 0.2365E+01   max: -.2974E+02   T at   10  1   RLX: 0.017
       a =  9.000      CL =  2.2400
      Cm = -0.4841     CD =  0.18945   =>   CDf =  0.00496    CDp =  0.18449

 Side 1  free  transition at x/c =  0.0447    9
 Side 2 forced transition at x/c =  1.0000   24

  29   rms: 0.7904E+00   max: 0.3268E+01   T at    9  1   RLX: 0.262
       a =  9.000      CL =  1.7732
      Cm = -0.3635     CD =  0.22062   =>   CDf =  0.00499    CDp =  0.21563

 MRCHDU: Convergence failed at  11  side 1    Res =  0.7591E-01
 Side 1  free  transition at x/c =  0.0403    9
 Side 2 forced transition at x/c =  1.0000   24
 idif Ue xi dudx           1  0.26046050      8.04781914E-03   32.364109    
 Uenew xinew           2  8.08658302E-02  2.49862671E-03

  30   rms: 0.9909E+00   max: 0.3080E+01   T at   14  1   RLX: 0.474
       a =  9.000      CL =  1.2967
      Cm = -0.2209     CD =  0.49651   =>   CDf =  0.00602    CDp =  0.49050

 Side 1  free  transition at x/c =  0.0484    8
 Side 2 forced transition at x/c =  1.0000   25

  31   rms: 0.9417E+00   max: -.7696E+01   T at    9  1   RLX: 0.065
       a =  9.000      CL =  1.1609
      Cm = -0.1768     CD =  0.23199   =>   CDf =  0.00564    CDp =  0.22635

 Side 1  free  transition at x/c =  0.0486    8
 Side 2 forced transition at x/c =  1.0000   25

  32   rms: 0.7412E+00   max: 0.3623E+01   C at   10  1   RLX: 0.263
       a =  9.000      CL =  1.0596
      Cm = -0.1361     CD =  0.17366   =>   CDf =  0.00557    CDp =  0.16809

 Side 1  free  transition at x/c =  0.0481    8
 Side 2 forced transition at x/c =  1.0000   25

  33   rms: 0.1383E+01   max: 0.3678E+01   T at   17  1   RLX: 0.345
       a =  9.000      CL =  1.1439
      Cm = -0.0679     CD =  0.24966   =>   CDf =  0.00463    CDp =  0.24503

 TRCHEK2: N2 convergence failed.
 x:  0.07324  0.07547  0.09891  N:  7.079  9.000 28.229  Nx: 335.599   dN:-0.105E+02
 MRCHDU: Convergence failed at  10  side 1    Res =  0.1701E+01
 Side 1  free  transition at x/c =  0.0728   10
 Side 2 forced transition at x/c =  1.0000   24

  34   rms: 0.7897E+00   max: 0.4255E+01   D at   12  1   RLX: 0.352
       a =  9.000      CL =  1.1202
      Cm = -0.0564     CD =  0.02593   =>   CDf =  0.01106    CDp =  0.01488

 MRCHDU: Convergence failed at  12  side 1    Res =  0.1645E+02
 MRCHDU: Convergence failed at  13  side 1    Res =  0.9731E+01
 MRCHDU: Convergence failed at  14  side 1    Res =  0.4102E+02
 MRCHDU: Convergence failed at  15  side 1    Res =  0.2527E+02
 MRCHDU: Convergence failed at  16  side 1    Res =  0.2032E+02
 MRCHDU: Convergence failed at  17  side 1    Res =  0.3395E+02
 MRCHDU: Convergence failed at  18  side 1    Res =  0.1393E+03
 MRCHDU: Convergence failed at  19  side 1    Res =  0.1224E+03
 MRCHDU: Convergence failed at  20  side 1    Res =  0.5161E+02
 MRCHDU: Convergence failed at  21  side 1    Res =  0.3493E+02
 MRCHDU: Convergence failed at  22  side 1    Res =  0.2825E+02
 MRCHDU: Convergence failed at  23  side 1    Res =  0.2535E+02
 MRCHDU: Convergence failed at  24  side 1    Res =  0.2939E+02
 MRCHDU: Convergence failed at  25  side 1    Res =  0.3217E+02
 MRCHDU: Convergence failed at  26  side 1    Res =  0.3608E+02
 MRCHDU: Convergence failed at  27  side 1    Res =  0.3742E+02
 MRCHDU: Convergence failed at  28  side 1    Res =  0.4062E+02
 MRCHDU: Convergence failed at  29  side 1    Res =  0.3634E+02
 Side 1  free  transition at x/c =  0.0730   10
 Side 2 forced transition at x/c =  1.0000   24

  35   rms: 0.1153E+01   max: 0.5909E+01   D at   26  2   RLX: 0.103
       a =  9.000      CL =  2.2185
      Cm = -0.4988     CD =  0.05376   =>   CDf =  0.00427    CDp =  0.04949

 Side 1  free  transition at x/c =  0.0731   10
 Side 2 forced transition at x/c =  1.0000   24

  36   rms: 0.5884E+00   max: 0.1411E+01   D at   30  2   RLX: 0.337
       a =  9.000      CL =  1.3964
      Cm = -0.2131     CD =  0.13402   =>   CDf =  0.00448    CDp =  0.12954

 Side 1  free  transition at x/c =  0.0725   10
 Side 2 forced transition at x/c =  1.0000   24

  37   rms: 0.3081E+00   max: 0.4977E+00   D at   26  2   RLX: 0.772
       a =  9.000      CL =  0.8670
      Cm = -0.0488     CD =  0.09889   =>   CDf =  0.00465    CDp =  0.09424

 Side 1  free  transition at x/c =  0.0698   10
 Side 2 forced transition at x/c =  1.0000   24

  38   rms: 0.1997E+00   max: -.6879E+00   D at   17  1   RLX: 0.727
       a =  9.000      CL =  0.7979
      Cm =  0.0002     CD =  0.07410   =>   CDf =  0.00486    CDp =  0.06924

 Side 1  free  transition at x/c =  0.0730   10
 Side 2 forced transition at x/c =  1.0000   24

  39   rms: 0.1516E+00   max: -.4998E+00   D at   19  1
       a =  9.000      CL =  0.8569
      Cm =  0.0034     CD =  0.07435   =>   CDf =  0.00512    CDp =  0.06922

 Side 1  free  transition at x/c =  0.0718   10
 Side 2 forced transition at x/c =  1.0000   24

  40   rms: 0.3713E-01   max: -.1623E+00   D at   22  1
       a =  9.000      CL =  0.8657
      Cm = -0.0039     CD =  0.07713   =>   CDf =  0.00532    CDp =  0.07181

 Side 1  free  transition at x/c =  0.0722   10
 Side 2 forced transition at x/c =  1.0000   24

  41   rms: 0.6417E-02   max: -.4222E-01   D at   24  1
       a =  9.000      CL =  0.8660
      Cm = -0.0051     CD =  0.07756   =>   CDf =  0.00550    CDp =  0.07205

 Side 1  free  transition at x/c =  0.0723   10
 Side 2 forced transition at x/c =  1.0000   24

  42   rms: 0.1893E-03   max: -.1709E-02   D at   24  1
       a =  9.000      CL =  0.8660
      Cm = -0.0051     CD =  0.07757   =>   CDf =  0.00554    CDp =  0.07203

 Side 1  free  transition at x/c =  0.0723   10
 Side 2 forced transition at x/c =  1.0000   24

  43   rms: 0.4262E-06   max: -.2508E-05   D at   30  2
       a =  9.000      CL =  0.8660
      Cm = -0.0051     CD =  0.07757   =>   CDf =  0.00554    CDp =  0.07203
 plradd ia,ip,cpol           10          28  4.24000015E-03

 Point added to stored polar  1
 Save file unspecified or not available
 Dump file unspecified or not available

.OPERva   c>  
.OPERva   c>  
.OPERva   c>   Calculating wake trajectory ...
 Calculating source influence matrix ...

 Solving BL system ...

 Side 1  free  transition at x/c =  0.0723   10
 Side 2 forced transition at x/c =  1.0000   24

   1   rms: 0.1397E+00   max: 0.6686E+00   T at   10  1   RLX: 0.970
       a = 10.000      CL =  0.8307
      Cm =  0.0007     CD =  0.08567   =>   CDf =  0.00556    CDp =  0.08011

 TRCHEK2: N2 convergence failed.
 x:  0.17485  0.20919  0.22533  N:  8.817  9.000  9.066  Nx:   8.386   dN:-0.531E+00
 TRCHEK2: N2 convergence failed.
 x:  0.17485  0.22087  0.22533  N:  8.817  9.000  9.007  Nx:   6.012   dN:-0.243E+00
 TRCHEK2: N2 convergence failed.
 x:  0.17485  0.22271  0.22533  N:  8.817  9.000  9.000  Nx:   5.480   dN:-0.123E+01
 TRCHEK2: N2 convergence failed.
 x:  0.17485  0.22069  0.22533  N:  8.817  9.000  9.007  Nx:   5.719   dN:-0.501E-01
 TRCHEK2: N2 convergence failed.
 x:  0.17485  0.22081  0.22533  N:  8.817  9.000  9.029  Nx:   5.374   dN: 0.228E+00
 TRCHEK2: N2 convergence failed.
 x:  0.17485  0.21137  0.22533  N:  8.817  9.000  9.052  Nx:   9.514   dN:-0.799E-01
 TRCHEK2: N2 convergence failed.
 x:  0.17485  0.22062  0.22533  N:  8.817  9.000  9.030  Nx:   5.357   dN: 0.699E-01
 TRCHEK2: N2 convergence failed.
 x:  0.17485  0.22076  0.22533  N:  8.817  9.000  9.029  Nx:   5.368   dN: 0.102E+00
 TRCHEK2: N2 convergence failed.
 x:  0.17485  0.22067  0.22533  N:  8.817  9.000  9.008  Nx:   5.524   dN:-0.136E+00
 TRCHEK2: N2 convergence failed.
 x:  0.17485  0.22091  0.22533  N:  8.817  9.000  9.029  Nx:   5.352   dN: 0.708E-01
 TRCHEK2: N2 convergence failed.
 x:  0.17485  0.22070  0.22533  N:  8.817  9.000  9.030  Nx:   5.423   dN: 0.131E+01
 TRCHEK2: N2 convergence failed.
 x:  0.17485  0.22050  0.22533  N:  8.817  9.000  9.008  Nx:   5.766   dN:-0.364E-01
 TRCHEK2: N2 convergence failed.
 x:  0.17485  0.22079  0.22533  N:  8.817  9.000  9.029  Nx:   5.364   dN: 0.710E-01
 TRCHEK2: N2 convergence failed.
 x:  0.17485  0.22059  0.22533  N:  8.817  9.000  9.008  Nx:   5.446   dN:-0.227E+00
 TRCHEK2: N2 convergence failed.
 x:  0.17485  0.21591  0.22533  N:  8.817  9.000  9.028  Nx:   5.890   dN:-0.236E-01
 TRCHEK2: N2 convergence failed.
 x:  0.17485  0.22085  0.22533  N:  8.817  9.000  9.029  Nx:   5.351   dN: 0.705E-01
 TRCHEK2: N2 convergence failed.
 x:  0.17485  0.22083  0.22533  N:  8.817  9.000  9.029  Nx:   5.359   dN: 0.920E-01
 TRCHEK2: N2 convergence failed.
 x:  0.17485  0.22070  0.22533  N:  8.817  9.000  9.007  Nx:   5.543   dN:-0.163E+00
 TRCHEK2: N2 convergence failed.
 x:  0.17485  0.22095  0.22533  N:  8.817  9.000  9.028  Nx:   5.347   dN: 0.707E-01
 TRCHEK2: N2 convergence failed.
 x:  0.17485  0.22072  0.22533  N:  8.817  9.000  9.007  Nx:   5.467   dN:-0.402E+00
 TRCHEK2: N2 convergence failed.
 x:  0.17485  0.22091  0.22533  N:  8.817  9.000  9.029  Nx:   5.351   dN: 0.708E-01
 TRCHEK2: N2 convergence failed.
 x:  0.17485  0.22071  0.22533  N:  8.817  9.000  9.007  Nx:   5.435   dN:-0.200E+01
 TRCHEK2: N2 convergence failed.
 x:  0.17485  0.22086  0.22533  N:  8.817  9.000  9.029  Nx:   5.356   dN: 0.922E-01
 TRCHEK2: N2 convergence failed.
 x:  0.17485  0.22065  0.22533  N:  8.817  9.000  9.008  Nx:   5.503   dN:-0.123E+00
 TRCHEK2: N2 convergence failed.
 x:  0.17485  0.22092  0.22533  N:  8.817  9.000  9.028  Nx:   5.355   dN: 0.711E-01
 MRCHDU: Convergence failed at  13  side 1    Res =  0.2003E+02
 MRCHDU: Convergence failed at  14  side 1    Res =  0.4688E+02
 MRCHDU: Convergence failed at  15  side 1    Res =  0.6236E+02
 MRCHDU: Convergence failed at  16  side 1    Res =  0.1862E+03
 MRCHDU: Convergence failed at  17  side 1    Res =  0.2606E+03
 MRCHDU: Convergence failed at  18  side 1    Res =  0.3502E+03
 MRCHDU: Convergence failed at  19  side 1    Res =  0.1184E+03
 MRCHDU: Convergence failed at  20  side 1    Res =  0.3684E+03
 MRCHDU: Convergence failed at  21  side 1    Res =  0.9603E+03
 MRCHDU: Convergence failed at  22  side 1    Res =  0.1026E+04
 MRCHDU: Convergence failed at  23  side 1    Res =  0.2196E+03
 MRCHDU: Convergence failed at  24  side 1    Res =  0.1878E+03
 MRCHDU: Convergence failed at  25  side 1    Res =  0.1765E+03
 MRCHDU: Convergence failed at  26  side 1    Res =  0.2470E+03
 MRCHDU: Convergence failed at  27  side 1    Res =  0.3083E+03
 MRCHDU: Convergence failed at  28  side 1    Res =  0.9677E+03
 MRCHDU: Convergence failed at  29  side 1    Res =  0.6535E+03
 Side 1  free  transition at x/c =  0.1727   13
 Side 2 forced transition at x/c =  1.0000   24

   2   rms: 0.1701E+01   max: 0.1059E+02   D at   26  2   RLX: 0.142
       a = 10.000      CL =  2.0563
      Cm = -0.4616     CD =  0.01449   =>   CDf =  0.00401    CDp =  0.01048

 MRCHDU: Convergence failed at  28  side 2    Res =  0.1452E+01
 Side 1  free  transition at x/c =  0.1362   12
 Side 2 forced transition at x/c =  1.0000   24
 idif Ue xi dudx           1  0.21128252      6.04724884E-03   34.938618    
 Uenew xinew           2  1.74014028E-02  4.98056412E-04

   3   rms: 0.5640E+00   max: 0.2276E+01   D at   29  2   RLX: 0.384
       a = 10.000      CL =  1.3809
      Cm = -0.2486     CD =  0.19201   =>   CDf =  0.00529    CDp =  0.18672

 Side 1  free  transition at x/c =  0.1106   11
 Side 2 forced transition at x/c =  1.0000   25
 idif Ue xi dudx           1  0.12887374      3.36158276E-03   38.337219    
 Uenew xinew           2  1.56344920E-02  4.07814980E-04

   4   rms: 0.4286E+00   max: 0.1308E+01   D at    2  2   RLX: 0.615
       a = 10.000      CL =  0.8438
      Cm = -0.1134     CD =  0.18900   =>   CDf =  0.00575    CDp =  0.18324

 Side 1  free  transition at x/c =  0.6986   21
 Side 2 forced transition at x/c =  1.0000   26

   5   rms: 0.4362E+01   max: -.3322E+02   D at    2  2   RLX: 0.015
       a = 10.000      CL =  0.9945
      Cm = -0.1620     CD =  0.15788   =>   CDf =  0.00524    CDp =  0.15264

 Side 1  free  transition at x/c =  0.6550   21
 Side 2 forced transition at x/c =  1.0000   26

   6   rms: 0.7201E+01   max: -.5604E+02   T at   21  1   RLX: 0.009
       a = 10.000      CL =  0.9453
      Cm = -0.1594     CD =  0.16290   =>   CDf =  0.00528    CDp =  0.15762

 Side 1  free  transition at x/c =  0.3264   14
 Side 2 forced transition at x/c =  1.0000   26

   7   rms: 0.1913E+01   max: -.2651E+02   T at   14  1   RLX: 0.019
       a = 10.000      CL =  0.8653
      Cm = -0.1346     CD =  0.23946   =>   CDf =  0.00558    CDp =  0.23388

 Side 1  free  transition at x/c =  0.2841   13
 Side 2 forced transition at x/c =  1.0000   26

   8   rms: 0.3653E+00   max: -.2576E+01   T at   13  1   RLX: 0.194
       a = 10.000      CL =  0.7798
      Cm = -0.1145     CD =  0.23156   =>   CDf =  0.00564    CDp =  0.22592

 Side 1  free  transition at x/c =  0.1945   11
 Side 2 forced transition at x/c =  1.0000   26

   9   rms: 0.2799E+00   max: 0.8599E+00   C at   26  2   RLX: 0.605
       a = 10.000      CL =  0.5972
      Cm = -0.0665     CD =  0.19005   =>   CDf =  0.00575    CDp =  0.18430

 Side 1  free  transition at x/c =  0.1300   10
 Side 2 forced transition at x/c =  1.0000   26

  10   rms: 0.2302E+00   max: -.8028E+00   D at   13  1   RLX: 0.623
       a = 10.000      CL =  0.5508
      Cm = -0.0478     CD =  0.16508   =>   CDf =  0.00576    CDp =  0.15932

 Side 1  free  transition at x/c =  0.1466   10
 Side 2 forced transition at x/c =  1.0000   26

  11   rms: 0.2467E+00   max: -.8551E+00   D at   13  1   RLX: 0.585
       a = 10.000      CL =  0.5481
      Cm = -0.0333     CD =  0.17423   =>   CDf =  0.00567    CDp =  0.16856

 Side 1  free  transition at x/c =  0.1422   10
 Side 2 forced transition at x/c =  1.0000   26

  12   rms: 0.2063E+00   max: -.6191E+00   D at   13  1   RLX: 0.808
       a = 10.000      CL =  0.6487
      Cm = -0.0325     CD =  0.12197   =>   CDf =  0.00557    CDp =  0.11640

 Side 1  free  transition at x/c =  0.2156   12
 Side 2 forced transition at x/c =  1.0000   26

  13   rms: 0.3983E+00   max: 0.2295E+01   T at   12  1   RLX: 0.653
       a = 10.000      CL =  0.8299
      Cm = -0.0096     CD =  0.10135   =>   CDf =  0.00512    CDp =  0.09622

 MRCHDU: Convergence failed at  14  side 1    Res =  0.4409E+02
 MRCHDU: Convergence failed at  15  side 1    Res =  0.5210E+02
 MRCHDU: Convergence failed at  16  side 1    Res =  0.1435E+03
 MRCHDU: Convergence failed at  17  side 1    Res =  0.1020E+04
 MRCHDU: Convergence failed at  18  side 1    Res =  0.1480E+04
 MRCHDU: Convergence failed at  19  side 1    Res =  0.1146E+04
 MRCHDU: Convergence failed at  20  side 1    Res =  0.4619E+03
 MRCHDU: Convergence failed at  21  side 1    Res =  0.8547E+03
 MRCHDU: Convergence failed at  22  side 1    Res =  0.2433E+03
 MRCHDU: Convergence failed at  23  side 1    Res =  0.1206E+03
 MRCHDU: Convergence failed at  24  side 1    Res =  0.1219E+03
 MRCHDU: Convergence failed at  25  side 1    Res =  0.1185E+03
 MRCHDU: Convergence failed at  26  side 1    Res =  0.1162E+03
 MRCHDU: Convergence failed at  27  side 1    Res =  0.1337E+03
 MRCHDU: Convergence failed at  28  side 1    Res =  0.1302E+03
 MRCHDU: Convergence failed at  29  side 1    Res =  0.1489E+03
 Side 1  free  transition at x/c =  0.1167   12
 Side 2 forced transition at x/c =  1.0000   24

  14   rms: 0.9502E+00   max: 0.6659E+01   T at   12  1   RLX: 0.188
       a = 10.000      CL =  1.5996
      Cm = -0.3283     CD =  0.05792   =>   CDf =  0.00442    CDp =  0.05350

 MRCHDU: Convergence failed at  27  side 2    Res =  0.2159E+01
 MRCHDU: Convergence failed at  28  side 2    Res =  0.7956E+01
 MRCHDU: Convergence failed at  29  side 2    Res =  0.2661E+01
 MRCHDU: Convergence failed at  30  side 2    Res =  0.6592E+01
 MRCHDU: Convergence failed at  31  side 2    Res =  0.7436E+01
 Side 1  free  transition at x/c =  0.1027   12
 Side 2 forced transition at x/c =  1.0000   24

  15   rms: 0.1997E+01   max: -.1244E+02   T at   12  1   RLX: 0.040
       a = 10.000      CL =  1.3893
      Cm = -0.2651     CD =  0.17642   =>   CDf =  0.00474    CDp =  0.17168

 Side 1  free  transition at x/c =  0.1152   12
 Side 2 forced transition at x/c =  1.0000   24

  16   rms: 0.4483E+01   max: -.5131E+02   T at   12  1   RLX: 0.010
       a = 10.000      CL =  1.4119
      Cm = -0.2749     CD =  0.19045   =>   CDf =  0.00485    CDp =  0.18560

 Side 1  free  transition at x/c =  0.1162   12
 Side 2 forced transition at x/c =  1.0000   24

  17   rms: 0.6987E+00   max: -.4745E+01   T at   12  1   RLX: 0.105
       a = 10.000      CL =  1.3082
      Cm = -0.2512     CD =  0.20561   =>   CDf =  0.00488    CDp =  0.20073

 Side 1  free  transition at x/c =  0.1106   12
 Side 2 forced transition at x/c =  1.0000   24
 idif Ue xi dudx           1  0.32592246      7.63237476E-03   42.702629    
 Uenew xinew           2  8.89573619E-02  2.08318233E-03

  18   rms: 0.5161E+00   max: 0.1927E+01   C at   24  2   RLX: 0.580
       a = 10.000      CL =  0.8255
      Cm = -0.1309     CD =  0.23677   =>   CDf =  0.00535    CDp =  0.23142

 Side 1  free  transition at x/c =  0.1131   11
 Side 2 forced transition at x/c =  1.0000   25
 idif Ue xi dudx           1  0.17145489      3.58045101E-03   47.886395    
 Uenew xinew           2  3.00096013E-02  6.26683235E-04

  19   rms: 0.2919E+00   max: -.9333E+00   D at   33  2   RLX: 0.536
       a = 10.000      CL =  0.6676
      Cm = -0.0838     CD =  0.19438   =>   CDf =  0.00561    CDp =  0.18878

 Side 1  free  transition at x/c =  0.1200   10
 Side 2 forced transition at x/c =  1.0000   26

  20   rms: 0.2736E+00   max: -.1344E+01   T at    2  2   RLX: 0.372
       a = 10.000      CL =  0.6000
      Cm = -0.0583     CD =  0.18390   =>   CDf =  0.00576    CDp =  0.17814

 Side 1  free  transition at x/c =  0.1289   10
 Side 2 forced transition at x/c =  1.0000   26

  21   rms: 0.1976E+00   max: -.6946E+00   D at   10  1   RLX: 0.720
       a = 10.000      CL =  0.5932
      Cm = -0.0418     CD =  0.14692   =>   CDf =  0.00569    CDp =  0.14123

 Side 1  free  transition at x/c =  0.2127   12
 Side 2 forced transition at x/c =  1.0000   26

  22   rms: 0.4739E+00   max: 0.2166E+01   T at   12  1   RLX: 0.593
       a = 10.000      CL =  0.7469
      Cm = -0.0053     CD =  0.11731   =>   CDf =  0.00534    CDp =  0.11197

 MRCHDU: Convergence failed at  15  side 1    Res =  0.2551E+01
 MRCHDU: Convergence failed at  16  side 1    Res =  0.9509E+01
 MRCHDU: Convergence failed at  17  side 1    Res =  0.7500E+01
 MRCHDU: Convergence failed at  18  side 1    Res =  0.1588E+02
 MRCHDU: Convergence failed at  19  side 1    Res =  0.5483E+02
 MRCHDU: Convergence failed at  20  side 1    Res =  0.2623E+02
 MRCHDU: Convergence failed at  21  side 1    Res =  0.1089E+02
 MRCHDU: Convergence failed at  22  side 1    Res =  0.7179E+01
 MRCHDU: Convergence failed at  23  side 1    Res =  0.8194E+01
 MRCHDU: Convergence failed at  24  side 1    Res =  0.1100E+02
 MRCHDU: Convergence failed at  25  side 1    Res =  0.1403E+02
 MRCHDU: Convergence failed at  26  side 1    Res =  0.2180E+02
 MRCHDU: Convergence failed at  27  side 1    Res =  0.3335E+02
 MRCHDU: Convergence failed at  28  side 1    Res =  0.6043E+02
 MRCHDU: Convergence failed at  29  side 1    Res =  0.2452E+03
 Side 1  free  transition at x/c =  0.1455   12
 Side 2 forced transition at x/c =  1.0000   24

  23   rms: 0.5132E+01   max: -.3378E+02   T at   13  1   RLX: 0.015
       a = 10.000      CL =  1.4257
      Cm = -0.2694     CD =  0.06668   =>   CDf =  0.00466    CDp =  0.06202

 MRCHDU: Convergence failed at  26  side 2    Res =  0.1912E+00
 Side 1  free  transition at x/c =  0.1424   12
 Side 2 forced transition at x/c =  1.0000   24

  24   rms: 0.3072E+01   max: -.3536E+02   T at   13  1   RLX: 0.014
       a = 10.000      CL =  1.3656
      Cm = -0.2532     CD =  0.04114   =>   CDf =  0.00871    CDp =  0.03242

 Side 1  free  transition at x/c =  0.1361   12
 Side 2 forced transition at x/c =  1.0000   24

  25   rms: 0.8123E+00   max: 0.6764E+01   T at   12  1   RLX: 0.149
       a = 10.000      CL =  1.3658
      Cm = -0.2211     CD =  0.04965   =>   CDf =  0.00820    CDp =  0.04144

 Side 1  free  transition at x/c =  0.0928   11
 Side 2 forced transition at x/c =  1.0000   24

  26   rms: 0.5730E+00   max: -.3587E+01   T at   12  1   RLX: 0.139
       a = 10.000      CL =  1.3811
      Cm = -0.2027     CD =  0.08447   =>   CDf =  0.00597    CDp =  0.07850

 Side 1  free  transition at x/c =  0.0793   11
 Side 2 forced transition at x/c =  1.0000   24

  27   rms: 0.3182E+01   max: -.3112E+02   T at   11  1   RLX: 0.016
       a = 10.000      CL =  1.4189
      Cm = -0.2187     CD =  0.10913   =>   CDf =  0.00486    CDp =  0.10427

 Side 1  free  transition at x/c =  0.0811   11
 Side 2 forced transition at x/c =  1.0000   24

  28   rms: 0.3345E+01   max: 0.2454E+02   T at   11  1   RLX: 0.061
       a = 10.000      CL =  1.5074
      Cm = -0.1962     CD =  0.12478   =>   CDf =  0.00469    CDp =  0.12010

 MRCHDU: Convergence failed at  29  side 1    Res =  0.2592E+01
 Side 1  free  transition at x/c =  0.0654   10
 Side 2 forced transition at x/c =  1.0000   24

  29   rms: 0.4091E+00   max: 0.9116E+00   D at   26  2   RLX: 0.585
       a = 10.000      CL =  1.2332
      Cm = -0.1241     CD =  0.11989   =>   CDf =  0.00448    CDp =  0.11541

 Side 1  free  transition at x/c =  0.0682   10
 Side 2 forced transition at x/c =  1.0000   24

  30   rms: 0.3724E+00   max: 0.1327E+01   T at   13  1   RLX: 0.639
       a = 10.000      CL =  0.9070
      Cm = -0.0813     CD =  0.11115   =>   CDf =  0.00467    CDp =  0.10649

 Side 1  free  transition at x/c =  0.0608   10
 Side 2 forced transition at x/c =  1.0000   24
 idif Ue xi dudx           1  0.23852985      7.17675686E-03   33.236439    
 Uenew xinew           2  5.40944450E-02  1.62756443E-03

  31   rms: 0.1935E+00   max: -.7672E+00   D at   13  1   RLX: 0.652
       a = 10.000      CL =  0.7891
      Cm = -0.0546     CD =  0.11485   =>   CDf =  0.00545    CDp =  0.10940

 MRCHDU: Convergence failed at  29  side 2    Res =  0.1994E+01
 Side 1  free  transition at x/c =  0.0834   10
 Side 2 forced transition at x/c =  1.0000   25

  32   rms: 0.4491E+01   max: 0.5031E+02   T at   10  1   RLX: 0.030
       a = 10.000      CL =  0.7073
      Cm = -0.0475     CD =  0.04196   =>   CDf =  0.00834    CDp =  0.03362

 MRCHDU: Convergence failed at  10  side 1    Res =  0.1097E+03
 MRCHDU: Convergence failed at  11  side 1    Res =  0.5935E+02
 MRCHDU: Convergence failed at  13  side 1    Res =  0.1137E+02
 MRCHDU: Convergence failed at  14  side 1    Res =  0.1999E+02
 MRCHDU: Convergence failed at  15  side 1    Res =  0.2483E+02
 MRCHDU: Convergence failed at  16  side 1    Res =  0.7797E+03
 MRCHDU: Convergence failed at  17  side 1    Res =  0.3173E+02
 MRCHDU: Convergence failed at  18  side 1    Res =  0.3568E+02
 MRCHDU: Convergence failed at  19  side 1    Res =  0.4644E+02
 MRCHDU: Convergence failed at  20  side 1    Res =  0.4719E+02
 MRCHDU: Convergence failed at  21  side 1    Res =  0.4680E+02
 MRCHDU: Convergence failed at  22  side 1    Res =  0.4885E+02
 MRCHDU: Convergence failed at  23  side 1    Res =  0.5426E+02
 MRCHDU: Convergence failed at  24  side 1    Res =  0.4174E+02
 MRCHDU: Convergence failed at  25  side 1    Res =  0.8796E+02
 MRCHDU: Convergence failed at  26  side 1    Res =  0.4332E+02
 MRCHDU: Convergence failed at  27  side 1    Res =  0.4258E+02
 MRCHDU: Convergence failed at  28  side 1    Res =  0.4461E+02
 Side 1  free  transition at x/c =  0.0640    9
 Side 2 forced transition at x/c =  1.0000   25

  33   rms: 0.1411E+01   max: 0.1028E+02   T at    9  1   RLX: 0.146
       a = 10.000      CL =  1.3793
      Cm = -0.2723     CD =  0.04325   =>   CDf =  0.00493    CDp =  0.03832

 Side 1  free  transition at x/c =  0.0591    9
 Side 2 forced transition at x/c =  1.0000   25

  34   rms: 0.4495E+00   max: 0.3648E+01   T at    9  1   RLX: 0.411
       a = 10.000      CL =  0.9502
      Cm = -0.1183     CD =  0.13169   =>   CDf =  0.00427    CDp =  0.12741

 MRCHDU: Convergence failed at  10  side 1    Res =  0.3304E+02
 Side 1  free  transition at x/c =  0.0463    9
 Side 2 forced transition at x/c =  1.0000   24
 idif Ue xi dudx           1  0.22074598      6.43050671E-03   34.327930    
 Uenew xinew           2  3.02536953E-02  8.81314278E-04

  35   rms: 0.4379E+00   max: 0.2179E+01   T at    2  1   RLX: 0.313
       a = 10.000      CL =  1.0460
      Cm = -0.1425     CD =  0.13232   =>   CDf =  0.00575    CDp =  0.12657

 MRCHDU: Convergence failed at   4  side 1    Res =  0.1027E+01
 Side 1  free  transition at x/c =  0.0467    8
 Side 2 forced transition at x/c =  1.0000   25

  36   rms: 0.2464E+00   max: -.8621E+00   D at   10  1   RLX: 0.580
       a = 10.000      CL =  0.6696
      Cm = -0.0560     CD =  0.13548   =>   CDf =  0.00608    CDp =  0.12941

 MRCHDU: Convergence failed at   4  side 1    Res =  0.9556E+00
 Side 1  free  transition at x/c =  0.0461    8
 Side 2 forced transition at x/c =  1.0000   25

  37   rms: 0.4050E+00   max: -.9727E+00   D at   10  1   RLX: 0.514
       a = 10.000      CL =  0.6122
      Cm = -0.0130     CD =  0.11894   =>   CDf =  0.00453    CDp =  0.11442

 MRCHDU: Convergence failed at   5  side 1    Res =  0.1217E+01
 Side 1  free  transition at x/c =  0.0554   10
 Side 2 forced transition at x/c =  1.0000   24

  38   rms: 0.7521E+00   max: 0.2229E+01   T at   10  1   RLX: 0.264
       a = 10.000      CL =  0.7065
      Cm = -0.0026     CD =  0.04335   =>   CDf =  0.00940    CDp =  0.03395

 MRCHDU: Convergence failed at   5  side 1    Res =  0.3939E+01
 MRCHDU: Convergence failed at  10  side 1    Res =  0.1192E+02
 MRCHDU: Convergence failed at  11  side 1    Res =  0.8114E+01
 MRCHDU: Convergence failed at  12  side 1    Res =  0.1354E+02
 MRCHDU: Convergence failed at  13  side 1    Res =  0.1049E+03
 MRCHDU: Convergence failed at  14  side 1    Res =  0.6599E+02
 MRCHDU: Convergence failed at  15  side 1    Res =  0.1371E+03
 MRCHDU: Convergence failed at  16  side 1    Res =  0.4262E+02
 MRCHDU: Convergence failed at  17  side 1    Res =  0.4125E+02
 MRCHDU: Convergence failed at  18  side 1    Res =  0.3920E+02
 MRCHDU: Convergence failed at  19  side 1    Res =  0.3963E+02
 MRCHDU: Convergence failed at  20  side 1    Res =  0.4547E+02
 MRCHDU: Convergence failed at  21  side 1    Res =  0.4747E+02
 MRCHDU: Convergence failed at  22  side 1    Res =  0.3652E+02
 MRCHDU: Convergence failed at  23  side 1    Res =  0.4093E+02
 MRCHDU: Convergence failed at  24  side 1    Res =  0.3235E+02
 MRCHDU: Convergence failed at  25  side 1    Res =  0.1501E+05
 MRCHDU: Convergence failed at  26  side 1    Res =  0.1991E+03
 MRCHDU: Convergence failed at  27  side 1    Res =  0.1398E+03
 MRCHDU: Convergence failed at  28  side 1    Res =  0.1284E+03
 MRCHDU: Convergence failed at  29  side 1    Res =  0.1163E+03
 Side 1  free  transition at x/c =  0.0475    9
 Side 2 forced transition at x/c =  1.0000   24

  39   rms: 0.1748E+01   max: 0.7841E+01   D at   26  2   RLX: 0.125
       a = 10.000      CL =  2.4161
      Cm = -0.5438     CD =  0.01305   =>   CDf =  0.00552    CDp =  0.00753

 MRCHDU: Convergence failed at   5  side 1    Res =  0.2665E+01
 MRCHDU: Convergence failed at  26  side 2    Res =  0.4944E+01
 MRCHDU: Convergence failed at  27  side 2    Res =  0.1018E+02
 MRCHDU: Convergence failed at  28  side 2    Res =  0.2463E+03
 MRCHDU: Convergence failed at  29  side 2    Res =  0.1597E+02
 MRCHDU: Convergence failed at  30  side 2    Res =  0.1194E+02
 MRCHDU: Convergence failed at  31  side 2    Res =  0.1544E+02
 MRCHDU: Convergence failed at  32  side 2    Res =  0.1223E+02
 Side 1  free  transition at x/c =  0.0465    9
 Side 2 forced transition at x/c =  1.0000   24

  40   rms: 0.5952E+00   max: 0.2562E+01   T at   10  1   RLX: 0.310
       a = 10.000      CL =  1.3684
      Cm = -0.1938     CD =  0.14596   =>   CDf =  0.00618    CDp =  0.13978

 MRCHDU: Convergence failed at   5  side 1    Res =  0.1226E+01
 Side 1  free  transition at x/c =  0.0529   10
 Side 2 forced transition at x/c =  1.0000   24

  41   rms: 0.2963E+01   max: 0.9318E+00   C at   24  2   RLX: 0.069
       a = 10.000      CL =  1.1798
      Cm = -0.1610     CD =  0.22945   =>   CDf =  0.00633    CDp =  0.22312

 MRCHDU: Convergence failed at   5  side 1    Res =  0.1762E+01
 Side 1  free  transition at x/c =  0.0586   10
 Side 2 forced transition at x/c =  1.0000   24
 idif Ue xi dudx           1  0.24996343      8.04972649E-03   31.052414    
 Uenew xinew           2  7.76476189E-02  2.50053406E-03

  42   rms: 0.1125E+01   max: 0.1928E+01   C at   24  2   RLX: 0.241
       a = 10.000      CL =  0.6469
      Cm = -0.0632     CD =  0.10361   =>   CDf =  0.00702    CDp =  0.09658

 Side 1  free  transition at x/c =  0.0725    9
 Side 2 forced transition at x/c =  1.0000   25

  43   rms: 0.1368E+01   max: 0.4265E+01   C at   25  2   RLX: 0.202
       a = 10.000      CL =  0.5469
      Cm = -0.0286     CD =  0.01729   =>   CDf =  0.00454    CDp =  0.01275

 MRCHDU: Convergence failed at  10  side 1    Res =  0.1506E+02
 MRCHDU: Convergence failed at  11  side 1    Res =  0.1216E+02
 MRCHDU: Convergence failed at  12  side 1    Res =  0.2856E+02
 MRCHDU: Convergence failed at  13  side 1    Res =  0.6082E+02
 MRCHDU: Convergence failed at  14  side 1    Res =  0.1390E+02
 MRCHDU: Convergence failed at  15  side 1    Res =  0.2865E+02
 MRCHDU: Convergence failed at  16  side 1    Res =  0.7641E+02
 MRCHDU: Convergence failed at  17  side 1    Res =  0.4787E+02
 MRCHDU: Convergence failed at  18  side 1    Res =  0.2288E+02
 MRCHDU: Convergence failed at  19  side 1    Res =  0.2105E+02
 MRCHDU: Convergence failed at  20  side 1    Res =  0.3255E+02
 MRCHDU: Convergence failed at  21  side 1    Res =  0.6853E+02
 MRCHDU: Convergence failed at  22  side 1    Res =  0.1734E+04
 MRCHDU: Convergence failed at  23  side 1    Res =  0.5282E+02
 MRCHDU: Convergence failed at  24  side 1    Res =  0.4060E+02
 MRCHDU: Convergence failed at  25  side 1    Res =  0.2620E+02
 MRCHDU: Convergence failed at  26  side 1    Res =  0.2238E+02
 MRCHDU: Convergence failed at  27  side 1    Res =  0.1753E+02
 MRCHDU: Convergence failed at  28  side 1    Res =  0.1767E+02
 Side 1  free  transition at x/c =  0.0803   10
 Side 2 forced transition at x/c =  1.0000   25
 idif Ue xi dudx           1  0.11692930      3.27765942E-03   35.674633    
 Uenew xinew           2  1.15547152E-02  3.23891640E-04

  44   rms: 0.1701E+01   max: 0.5749E+01   D at   28  1   RLX: 0.247
       a = 10.000      CL =  1.1750
      Cm = -0.2537     CD =  0.00098   =>   CDf =  0.00372    CDp = -0.00274

 Side 1  free  transition at x/c =  0.1079   10
 Side 2 forced transition at x/c =  1.0000   26

  45   rms: 0.8187E+01   max: -.7456E+02   T at    2  2   RLX: 0.007
       a = 10.000      CL =  0.7913
      Cm = -0.1263     CD =  0.00364   =>   CDf =  0.00387    CDp = -0.00024

 Side 1  free  transition at x/c =  0.1107   10
 Side 2 forced transition at x/c =  1.0000   26

  46   rms: 0.2803E+01   max: -.1560E+02   T at   10  1   RLX: 0.032
       a = 10.000      CL =  0.7223
      Cm = -0.1224     CD =  0.00305   =>   CDf =  0.00388    CDp = -0.00083

 Side 1  free  transition at x/c =  0.1257   10
 Side 2 forced transition at x/c =  1.0000   26

  47   rms: 0.3693E+01   max: 0.2424E+02   C at   26  2   RLX: 0.024
       a = 10.000      CL =  0.6485
      Cm = -0.1125     CD =  0.00149   =>   CDf =  0.00384    CDp = -0.00235

 Side 1  free  transition at x/c =  0.1425   10
 Side 2 forced transition at x/c =  1.0000   26

  48   rms: 0.3671E+01   max: 0.3158E+02   C at   26  2   RLX: 0.047
       a = 10.000      CL =  0.5781
      Cm = -0.1041     CD =  0.00049   =>   CDf =  0.00368    CDp = -0.00319

 Side 1  free  transition at x/c =  0.1428   10
 Side 2 forced transition at x/c =  1.0000   26

  49   rms: 0.1488E+01   max: 0.8290E+01   D at   25  2   RLX: 0.181
       a = 10.000      CL =  0.4926
      Cm = -0.0894     CD =  0.00043   =>   CDf =  0.00335    CDp = -0.00293

 Side 1  free  transition at x/c =  0.1399   10
 Side 2 forced transition at x/c =  1.0000   26

  50   rms: 0.8538E+00   max: 0.3612E+01   D at   20  2   RLX: 0.415
       a = 10.000      CL =  0.2990
      Cm = -0.0509     CD =  0.00010   =>   CDf =  0.00284    CDp = -0.00274

 Side 1  free  transition at x/c =  0.1480   10
 Side 2 forced transition at x/c =  1.0000   26

  51   rms: 0.1264E+01   max: 0.5374E+01   T at   11  1   RLX: 0.279
       a = 10.000      CL =  0.2139
      Cm = -0.0146     CD =  0.00004   =>   CDf =  0.00225    CDp = -0.00222

 MRCHDU: Convergence failed at  11  side 1    Res =  0.8980E+02
 MRCHDU: Convergence failed at  12  side 1    Res =  0.5239E+02
 MRCHDU: Convergence failed at  13  side 1    Res =  0.4111E+02
 MRCHDU: Convergence failed at  14  side 1    Res =  0.7620E+02
 MRCHDU: Convergence failed at  15  side 1    Res =  0.2625E+03
 MRCHDU: Convergence failed at  16  side 1    Res =  0.1077E+03
 MRCHDU: Convergence failed at  17  side 1    Res =  0.3625E+02
 MRCHDU: Convergence failed at  18  side 1    Res =  0.1023E+03
 MRCHDU: Convergence failed at  19  side 1    Res =  0.4794E+02
 MRCHDU: Convergence failed at  20  side 1    Res =  0.9436E+02
 MRCHDU: Convergence failed at  21  side 1    Res =  0.1088E+03
 MRCHDU: Convergence failed at  22  side 1    Res =  0.1001E+03
 MRCHDU: Convergence failed at  23  side 1    Res =  0.1693E+03
 MRCHDU: Convergence failed at  24  side 1    Res =  0.3311E+03
 MRCHDU: Convergence failed at  25  side 1    Res =  0.7811E+02
 MRCHDU: Convergence failed at  26  side 1    Res =  0.8712E+02
 MRCHDU: Convergence failed at  27  side 1    Res =  0.2542E+03
 Side 1  free  transition at x/c =  0.1458   10
 Side 2  free  transition at x/c =  0.9626   26

  52   rms: 0.2022E+01   max: 0.1701E+02   T at   10  1   RLX: 0.042
       a = 10.000      CL =  0.4876
      Cm = -0.1171     CD =  0.00000   =>   CDf =  0.00168    CDp = -0.00167

 Side 1  free  transition at x/c =  0.1481   10
 Side 2  free  transition at x/c =  0.9535   26

  53   rms: 0.4317E+00   max: -.4285E+01   T at   26  2   RLX: 0.117
       a = 10.000      CL =  0.3806
      Cm = -0.0790     CD =  0.00003   =>   CDf =  0.00180    CDp = -0.00178

 Side 1  free  transition at x/c =  0.1479   10
 Side 2  free  transition at x/c =  0.9592   26

  54   rms: 0.2406E+01   max: -.2400E+02   T at   26  2   RLX: 0.021
       a = 10.000      CL =  0.3833
      Cm = -0.0800     CD =  0.00004   =>   CDf =  0.00184    CDp = -0.00180

 Side 1  free  transition at x/c =  0.1475   10
 Side 2  free  transition at x/c =  0.9626   26

  55   rms: 0.9620E+00   max: 0.5796E+01   T at   11  1   RLX: 0.259
       a = 10.000      CL =  0.2709
      Cm = -0.0486     CD =  0.00000   =>   CDf =  0.00190    CDp = -0.00190

 Side 1  free  transition at x/c =  0.1474   10
 Side 2  free  transition at x/c =  0.9133   25

  56   rms: 0.4813E+01   max: 0.4177E+02   T at   25  2   RLX: 0.036
       a = 10.000      CL =  0.2536
      Cm = -0.0430     CD =  0.00000   =>   CDf =  0.00166    CDp = -0.00166

 Side 1  free  transition at x/c =  0.1474   10
 Side 2  free  transition at x/c =  0.8768   24

  57   rms: 0.2921E+01   max: 0.1252E+02   T at   11  1   RLX: 0.120
       a = 10.000      CL =  0.2430
      Cm = -0.0297     CD =  0.00000   =>   CDf =  0.00152    CDp = -0.00152

 MRCHDU: Convergence failed at  11  side 1    Res =  0.1382E+02
 MRCHDU: Convergence failed at  12  side 1    Res =  0.4263E+02
 MRCHDU: Convergence failed at  13  side 1    Res =  0.2244E+02
 MRCHDU: Convergence failed at  14  side 1    Res =  0.1825E+02
 MRCHDU: Convergence failed at  15  side 1    Res =  0.5591E+02
 MRCHDU: Convergence failed at  16  side 1    Res =  0.1646E+03
 MRCHDU: Convergence failed at  17  side 1    Res =  0.3425E+02
 MRCHDU: Convergence failed at  18  side 1    Res =  0.1884E+02
 MRCHDU: Convergence failed at  19  side 1    Res =  0.3076E+02
 MRCHDU: Convergence failed at  20  side 1    Res =  0.8813E+02
 MRCHDU: Convergence failed at  21  side 1    Res =  0.9485E+02
 MRCHDU: Convergence failed at  22  side 1    Res =  0.3229E+02
 MRCHDU: Convergence failed at  23  side 1    Res =  0.1792E+02
 MRCHDU: Convergence failed at  24  side 1    Res =  0.2661E+02
 MRCHDU: Convergence failed at  25  side 1    Res =  0.5174E+02
 MRCHDU: Convergence failed at  26  side 1    Res =  0.5898E+03
 MRCHDU: Convergence failed at  27  side 1    Res =  0.5809E+02
 Side 1  free  transition at x/c =  0.1817   11
 Side 2  free  transition at x/c =  0.8228   23

  58   rms: 0.1536E+01   max: 0.6084E+01   D at   27  1   RLX: 0.247
       a = 10.000      CL =  0.3695
      Cm = -0.0889     CD =  0.00000   =>   CDf =  0.00114    CDp = -0.00114

 Side 1  free  transition at x/c =  0.1830   11
 Side 2  free  transition at x/c =  0.8300   23

  59   rms: 0.6182E+00   max: -.6196E+01   T at   11  1   RLX: 0.081
       a = 10.000      CL =  0.2776
      Cm = -0.0575     CD =  0.00000   =>   CDf =  0.00131    CDp = -0.00131

 Side 1  free  transition at x/c =  0.2616   13
 Side 2  free  transition at x/c =  0.8280   23

  60   rms: 0.3249E+01   max: -.3461E+02   T at   13  1   RLX: 0.014
       a = 10.000      CL =  0.2812
      Cm = -0.0609     CD =  0.00000   =>   CDf =  0.00125    CDp = -0.00125

 Side 1  free  transition at x/c =  0.2749   13
 Side 2  free  transition at x/c =  0.8303   23

[...]
      Cm =  0.0002     CD =  0.00000   =>   CDf =  0.00009    CDp = -0.00009

 MRCHDU: Convergence failed at  14  side 1    Res =  0.2375E+00
 Side 1  free  transition at x/c =  0.0479    9
 Side 2  free  transition at x/c =  0.4489   13

 249   rms: 0.2136E+12   max: 0.3335E+13   T at   28  2   RLX: 0.000
       a = 20.000      CL = -0.0000
      Cm =  0.0002     CD =  0.00000   =>   CDf =  0.00009    CDp = -0.00009

 MRCHDU: Convergence failed at  14  side 1    Res =  0.9806E-01
 Side 1  free  transition at x/c =  0.0479    9
 Side 2  free  transition at x/c =  0.4489   13

 250   rms: 0.1822E+12   max: -.2836E+13   T at   28  2   RLX: 0.000
       a = 20.000      CL = -0.0000
      Cm =  0.0002     CD =  0.00000   =>   CDf =  0.00009    CDp = -0.00009

 MRCHDU: Convergence failed at  14  side 1    Res =  0.1771E+00
 Side 1  free  transition at x/c =  0.0479    9
 Side 2  free  transition at x/c =  0.4489   13

 251   rms: 0.1390E+12   max: -.2171E+13   T at   28  2   RLX: 0.000
       a = 20.000      CL = -0.0000
      Cm =  0.0002     CD =  0.00000   =>   CDf =  0.00009    CDp = -0.00009

 MRCHDU: Convergence failed at  14  side 1    Res =  0.9802E-01
 Side 1  free  transition at x/c =  0.0479    9
 Side 2  free  transition at x/c =  0.4489   13

 252   rms: 0.2279E+12   max: 0.3560E+13   T at   28  2   RLX: 0.000
       a = 20.000      CL = -0.0000
      Cm =  0.0002     CD =  0.00000   =>   CDf =  0.00009    CDp = -0.00009

 MRCHDU: Convergence failed at  14  side 1    Res =  0.1519E+00
 Side 1  free  transition at x/c =  0.0479    9
 Side 2  free  transition at x/c =  0.4489   13

 253   rms: 0.5379E+13   max: -.8394E+14   T at   28  2   RLX: 0.000
       a = 20.000      CL = -0.0000
      Cm =  0.0002     CD =  0.00000   =>   CDf =  0.00009    CDp = -0.00009

 MRCHDU: Convergence failed at  14  side 1    Res =  0.9804E-01
 Side 1  free  transition at x/c =  0.0479    9
 Side 2  free  transition at x/c =  0.4489   13

 254   rms: 0.1786E+12   max: 0.2790E+13   T at   28  2   RLX: 0.000
       a = 20.000      CL = -0.0000
      Cm =  0.0002     CD =  0.00000   =>   CDf =  0.00009    CDp = -0.00009

 MRCHDU: Convergence failed at  14  side 1    Res =  0.1621E+00
 Side 1  free  transition at x/c =  0.0479    9
 Side 2  free  transition at x/c =  0.4489   13

 255   rms: 0.8103E+11   max: -.1264E+13   T at   28  2   RLX: 0.000
       a = 20.000      CL = -0.0000
      Cm =  0.0002     CD =  0.00000   =>   CDf =  0.00009    CDp = -0.00009

 MRCHDU: Convergence failed at  14  side 1    Res =  0.9799E-01
 Side 1  free  transition at x/c =  0.0479    9
 Side 2  free  transition at x/c =  0.4489   13

 256   rms: 0.3117E+10   max: -.4848E+11   T at   28  2   RLX: 0.000
       a = 20.000      CL = -0.0000
      Cm =  0.0002     CD =  0.00000   =>   CDf =  0.00009    CDp = -0.00009

 MRCHDU: Convergence failed at  14  side 1    Res =  0.1419E+00
 Side 1  free  transition at x/c =  0.0479    9
 Side 2  free  transition at x/c =  0.4489   13

 257   rms: 0.1130E+13   max: 0.1766E+14   T at   28  2   RLX: 0.000
       a = 20.000      CL = -0.0000
      Cm =  0.0002     CD =  0.00000   =>   CDf =  0.00009    CDp = -0.00009

 MRCHDU: Convergence failed at  14  side 1    Res =  0.9831E-01
 Side 1  free  transition at x/c =  0.0479    9
 Side 2  free  transition at x/c =  0.4489   13

 258   rms: 0.1025E+12   max: -.1600E+13   T at   28  2   RLX: 0.000
       a = 20.000      CL = -0.0000
      Cm =  0.0002     CD =  0.00000   =>   CDf =  0.00009    CDp = -0.00009

 MRCHDU: Convergence failed at  14  side 1    Res =  0.3128E+00
 Side 1  free  transition at x/c =  0.0479    9
 Side 2  free  transition at x/c =  0.4489   13

 259   rms: 0.1109E+13   max: -.1733E+14   T at   28  2   RLX: 0.000
       a = 20.000      CL = -0.0000
      Cm =  0.0002     CD =  0.00000   =>   CDf =  0.00009    CDp = -0.00009

 MRCHDU: Convergence failed at  14  side 1    Res =  0.9824E-01
 Side 1  free  transition at x/c =  0.0479    9
 Side 2  free  transition at x/c =  0.4489   13

 260   rms: 0.3745E+11   max: -.5850E+12   T at   28  2   RLX: 0.000
       a = 20.000      CL = -0.0000
      Cm =  0.0002     CD =  0.00000   =>   CDf =  0.00009    CDp = -0.00009

 MRCHDU: Convergence failed at  14  side 1    Res =  0.2229E+00
 Side 1  free  transition at x/c =  0.0479    9
 Side 2  free  transition at x/c =  0.4489   13

 261   rms: 0.2560E+13   max: 0.3999E+14   T at   28  2   RLX: 0.000
       a = 20.000      CL = -0.0000
      Cm =  0.0002     CD =  0.00000   =>   CDf =  0.00009    CDp = -0.00009

 MRCHDU: Convergence failed at  14  side 1    Res =  0.9825E-01
 Side 1  free  transition at x/c =  0.0479    9
 Side 2  free  transition at x/c =  0.4489   13

 262   rms: 0.1395E+10   max: -.2176E+11   T at   28  2   RLX: 0.000
       a = 20.000      CL = -0.0000
      Cm =  0.0002     CD =  0.00000   =>   CDf =  0.00009    CDp = -0.00009

 MRCHDU: Convergence failed at  14  side 1    Res =  0.1078E+00
 Side 1  free  transition at x/c =  0.0479    9
 Side 2  free  transition at x/c =  0.4489   13

 263   rms: 0.5496E+12   max: -.8585E+13   T at   28  2   RLX: 0.000
       a = 20.000      CL = -0.0000
      Cm =  0.0002     CD =  0.00000   =>   CDf =  0.00009    CDp = -0.00009

 MRCHDU: Convergence failed at  14  side 1    Res =  0.9870E-01
 Side 1  free  transition at x/c =  0.0479    9
 Side 2  free  transition at x/c =  0.4489   13

 264   rms: 0.4425E+13   max: 0.6912E+14   T at   28  2   RLX: 0.000
       a = 20.000      CL = -0.0000
      Cm =  0.0002     CD =  0.00000   =>   CDf =  0.00009    CDp = -0.00009

 MRCHDU: Convergence failed at  14  side 1    Res =  0.7144E+01
 Side 1  free  transition at x/c =  0.0479    9
 Side 2  free  transition at x/c =  0.4489   13

 265   rms: 0.4445E+13   max: 0.6944E+14   T at   28  2   RLX: 0.000
       a = 20.000      CL = -0.0000
      Cm =  0.0002     CD =  0.00000   =>   CDf =  0.00009    CDp = -0.00009

 MRCHDU: Convergence failed at  14  side 1    Res =  0.9870E-01
 Side 1  free  transition at x/c =  0.0479    9
 Side 2  free  transition at x/c =  0.4489   13

 266   rms: 0.1314E+13   max: -.2053E+14   T at   28  2   RLX: 0.000
       a = 20.000      CL = -0.0000
      Cm =  0.0002     CD =  0.00000   =>   CDf =  0.00009    CDp = -0.00009

 MRCHDU: Convergence failed at  14  side 1    Res =  0.8530E+01
 Side 1  free  transition at x/c =  0.0479    9
 Side 2  free  transition at x/c =  0.4489   13

 267   rms: 0.1674E+13   max: -.2615E+14   T at   28  2   RLX: 0.000
       a = 20.000      CL = -0.0000
      Cm =  0.0002     CD =  0.00000   =>   CDf =  0.00009    CDp = -0.00009

 MRCHDU: Convergence failed at  14  side 1    Res =  0.9870E-01
 Side 1  free  transition at x/c =  0.0479    9
 Side 2  free  transition at x/c =  0.4489   13

 268   rms: 0.1038E+12   max: 0.1622E+13   T at   28  2   RLX: 0.000
       a = 20.000      CL = -0.0000
      Cm =  0.0002     CD =  0.00000   =>   CDf =  0.00009    CDp = -0.00009

 MRCHDU: Convergence failed at  14  side 1    Res =  0.7282E+01
 Side 1  free  transition at x/c =  0.0479    9
 Side 2  free  transition at x/c =  0.4489   13

 269   rms: 0.9057E+13   max: -.1415E+15   T at   28  2   RLX: 0.000
       a = 20.000      CL = -0.0000
      Cm =  0.0002     CD =  0.00000   =>   CDf =  0.00009    CDp = -0.00009

 MRCHDU: Convergence failed at  14  side 1    Res =  0.9865E-01
 Side 1  free  transition at x/c =  0.0479    9
 Side 2  free  transition at x/c =  0.4489   13

 270   rms: 0.3669E+12   max: 0.5731E+13   T at   28  2   RLX: 0.000
       a = 20.000      CL = -0.0000
      Cm =  0.0002     CD =  0.00000   =>   CDf =  0.00009    CDp = -0.00009

 MRCHDU: Convergence failed at  14  side 1    Res =  0.5448E+01
 Side 1  free  transition at x/c =  0.0479    9
 Side 2  free  transition at x/c =  0.4489   13

 271   rms: 0.4611E+13   max: 0.7202E+14   T at   28  2   RLX: 0.000
       a = 20.000      CL = -0.0000
      Cm =  0.0002     CD =  0.00000   =>   CDf =  0.00009    CDp = -0.00009

 MRCHDU: Convergence failed at  14  side 1    Res =  0.9873E-01
 Side 1  free  transition at x/c =  0.0479    9
 Side 2  free  transition at x/c =  0.4489   13

 272   rms: 0.2036E+12   max: -.3179E+13   T at   28  2   RLX: 0.000
       a = 20.000      CL = -0.0000
      Cm =  0.0002     CD =  0.00000   =>   CDf =  0.00009    CDp = -0.00009

 MRCHDU: Convergence failed at  14  side 1    Res =  0.1818E+02
 Side 1  free  transition at x/c =  0.0479    9
 Side 2  free  transition at x/c =  0.4489   13

 273   rms: 0.6436E+13   max: -.1005E+15   T at   28  2   RLX: 0.000
       a = 20.000      CL = -0.0000
      Cm =  0.0002     CD =  0.00000   =>   CDf =  0.00009    CDp = -0.00009

 MRCHDU: Convergence failed at  14  side 1    Res =  0.9868E-01
 Side 1  free  transition at x/c =  0.0479    9
 Side 2  free  transition at x/c =  0.4489   13

 274   rms: 0.4607E+14   max: 0.7197E+15   T at   28  2   RLX: 0.000
       a = 20.000      CL = -0.0000
      Cm =  0.0002     CD =  0.00000   =>   CDf =  0.00009    CDp = -0.00009

 MRCHDU: Convergence failed at  14  side 1    Res =  0.5357E+01
 Side 1  free  transition at x/c =  0.0479    9
 Side 2  free  transition at x/c =  0.4489   13

 275   rms: 0.4292E+12   max: 0.6705E+13   T at   28  2   RLX: 0.000
       a = 20.000      CL = -0.0000
      Cm =  0.0002     CD =  0.00000   =>   CDf =  0.00009    CDp = -0.00009

 MRCHDU: Convergence failed at  14  side 1    Res =  0.9869E-01
 Side 1  free  transition at x/c =  0.0479    9
 Side 2  free  transition at x/c =  0.4489   13

 276   rms: 0.1793E+13   max: -.2798E+14   T at   28  2   RLX: 0.000
       a = 20.000      CL = -0.0000
      Cm =  0.0002     CD =  0.00000   =>   CDf =  0.00009    CDp = -0.00009

 MRCHDU: Convergence failed at  14  side 1    Res =  0.6671E+01
 Side 1  free  transition at x/c =  0.0479    9
 Side 2  free  transition at x/c =  0.4489   13

 277   rms: 0.4891E+12   max: 0.7640E+13   T at   28  2   RLX: 0.000
       a = 20.000      CL = -0.0000
      Cm =  0.0002     CD =  0.00000   =>   CDf =  0.00009    CDp = -0.00009

 MRCHDU: Convergence failed at  14  side 1    Res =  0.9865E-01
 Side 1  free  transition at x/c =  0.0479    9
 Side 2  free  transition at x/c =  0.4489   13

 278   rms: 0.1019E+12   max: 0.1590E+13   T at   28  2   RLX: 0.000
       a = 20.000      CL = -0.0000
      Cm =  0.0002     CD =  0.00000   =>   CDf =  0.00009    CDp = -0.00009

 MRCHDU: Convergence failed at  14  side 1    Res =  0.5035E+01
 Side 1  free  transition at x/c =  0.0479    9
 Side 2  free  transition at x/c =  0.4489   13

 279   rms: 0.7674E+10   max: 0.1179E+12   T at   28  2   RLX: 0.000
       a = 20.000      CL = -0.0000
      Cm =  0.0002     CD =  0.00000   =>   CDf =  0.00009    CDp = -0.00009

 MRCHDU: Convergence failed at  14  side 1    Res =  0.9877E-01
 Side 1  free  transition at x/c =  0.0479    9
 Side 2  free  transition at x/c =  0.4489   13

 280   rms: 0.5430E+11   max: 0.6792E+12   T at   28  2   RLX: 0.000
       a = 20.000      CL = -0.0000
      Cm =  0.0002     CD =  0.00000   =>   CDf =  0.00009    CDp = -0.00009

 MRCHDU: Convergence failed at  14  side 1    Res =  0.2372E+01
 Side 1  free  transition at x/c =  0.0479    9
 Side 2  free  transition at x/c =  0.4489   13

 281   rms: 0.1766E+10   max: 0.2529E+11   T at   32  2   RLX: 0.000
       a = 20.000      CL = -0.0000
      Cm =  0.0002     CD =  0.00000   =>   CDf =  0.00009    CDp = -0.00009

 MRCHDU: Convergence failed at  14  side 1    Res =  0.9354E-01
 Side 1  free  transition at x/c =  0.0479    9
 Side 2  free  transition at x/c =  0.4489   13

 282   rms: 0.2373E+11   max: 0.3234E+12   T at   28  2   RLX: 0.000
       a = 20.000      CL = -0.0000
      Cm =  0.0002     CD =  0.00000   =>   CDf =  0.00009    CDp = -0.00009

 MRCHDU: Convergence failed at  14  side 1    Res =  0.1276E+01
 Side 1  free  transition at x/c =  0.0479    9
 Side 2  free  transition at x/c =  0.4489   13

 283   rms: 0.2900E+10   max: 0.4081E+11   T at   32  2   RLX: 0.000
       a = 20.000      CL = -0.0000
      Cm =  0.0002     CD =  0.00000   =>   CDf =  0.00009    CDp = -0.00009

 MRCHDU: Convergence failed at  14  side 1    Res =  0.9407E-01
 Side 1  free  transition at x/c =  0.0479    9
 Side 2  free  transition at x/c =  0.4489   13

 284   rms: 0.4198E+10   max: -.5832E+11   T at   28  2   RLX: 0.000
       a = 20.000      CL = -0.0000
      Cm =  0.0002     CD =  0.00000   =>   CDf =  0.00009    CDp = -0.00009

 MRCHDU: Convergence failed at  14  side 1    Res =  0.1279E+01
 Side 1  free  transition at x/c =  0.0479    9
 Side 2  free  transition at x/c =  0.4489   13

 285   rms: 0.4745E+10   max: 0.7288E+11   T at   28  2   RLX: 0.000
       a = 20.000      CL = -0.0000
      Cm =  0.0002     CD =  0.00000   =>   CDf =  0.00009    CDp = -0.00009

 MRCHDU: Convergence failed at  14  side 1    Res =  0.9382E-01
 Side 1  free  transition at x/c =  0.0479    9
 Side 2  free  transition at x/c =  0.4489   13

 286   rms: 0.8317E+10   max: 0.1056E+12   T at   28  2   RLX: 0.000
       a = 20.000      CL = -0.0000
      Cm =  0.0002     CD =  0.00000   =>   CDf =  0.00009    CDp = -0.00009

 MRCHDU: Convergence failed at  14  side 1    Res =  0.1264E+01
 Side 1  free  transition at x/c =  0.0479    9
 Side 2  free  transition at x/c =  0.4489   13

 287   rms: 0.4931E+10   max: -.7073E+11   T at   32  2   RLX: 0.000
       a = 20.000      CL = -0.0000
      Cm =  0.0002     CD =  0.00000   =>   CDf =  0.00009    CDp = -0.00009

 MRCHDU: Convergence failed at  14  side 1    Res =  0.9411E-01
 Side 1  free  transition at x/c =  0.0479    9
 Side 2  free  transition at x/c =  0.4489   13

 288   rms: 0.5439E+11   max: -.8339E+12   T at   32  2   RLX: 0.000
       a = 20.000      CL = -0.0000
      Cm =  0.0002     CD =  0.00000   =>   CDf =  0.00009    CDp = -0.00009

 MRCHDU: Convergence failed at  14  side 1    Res =  0.1279E+01
 Side 1  free  transition at x/c =  0.0479    9
 Side 2  free  transition at x/c =  0.4489   13

 289   rms: 0.1720E+12   max: -.2674E+13   T at   32  2   RLX: 0.000
       a = 20.000      CL = -0.0000
      Cm =  0.0002     CD =  0.00000   =>   CDf =  0.00009    CDp = -0.00009

 MRCHDU: Convergence failed at  14  side 1    Res =  0.9409E-01
 Side 1  free  transition at x/c =  0.0479    9
 Side 2  free  transition at x/c =  0.4489   13

 290   rms: 0.8735E+10   max: -.1363E+12   T at   32  2   RLX: 0.000
       a = 20.000      CL = -0.0000
      Cm =  0.0002     CD =  0.00000   =>   CDf =  0.00009    CDp = -0.00009

 MRCHDU: Convergence failed at  14  side 1    Res =  0.1279E+01
 Side 1  free  transition at x/c =  0.0479    9
 Side 2  free  transition at x/c =  0.4489   13

 291   rms: 0.1402E+13   max: -.2189E+14   T at   32  2   RLX: 0.000
       a = 20.000      CL = -0.0000
      Cm =  0.0002     CD =  0.00000   =>   CDf =  0.00009    CDp = -0.00009

 MRCHDU: Convergence failed at  14  side 1    Res =  0.9406E-01
 Side 1  free  transition at x/c =  0.0479    9
 Side 2  free  transition at x/c =  0.4489   13

 292   rms: 0.3830E+12   max: -.5982E+13   T at   32  2   RLX: 0.000
       a = 20.000      CL = -0.0000
      Cm =  0.0002     CD =  0.00000   =>   CDf =  0.00009    CDp = -0.00009

 MRCHDU: Convergence failed at  14  side 1    Res =  0.1277E+01
 Side 1  free  transition at x/c =  0.0479    9
 Side 2  free  transition at x/c =  0.4489   13

 293   rms: 0.1717E+13   max: -.2682E+14   T at   32  2   RLX: 0.000
       a = 20.000      CL = -0.0000
      Cm =  0.0002     CD =  0.00000   =>   CDf =  0.00009    CDp = -0.00009

 MRCHDU: Convergence failed at  14  side 1    Res =  0.9406E-01
 Side 1  free  transition at x/c =  0.0479    9
 Side 2  free  transition at x/c =  0.4489   13

 294   rms: 0.3706E+14   max: 0.5788E+15   T at   32  2   RLX: 0.000
       a = 20.000      CL = -0.0000
      Cm =  0.0002     CD =  0.00000   =>   CDf =  0.00009    CDp = -0.00009

 MRCHDU: Convergence failed at  14  side 1    Res =  0.1277E+01
 Side 1  free  transition at x/c =  0.0479    9
 Side 2  free  transition at x/c =  0.4489   13

 295   rms: 0.5816E+12   max: 0.9085E+13   T at   32  2   RLX: 0.000
       a = 20.000      CL = -0.0000
      Cm =  0.0002     CD =  0.00000   =>   CDf =  0.00009    CDp = -0.00009

 MRCHDU: Convergence failed at  14  side 1    Res =  0.9405E-01
 Side 1  free  transition at x/c =  0.0479    9
 Side 2  free  transition at x/c =  0.4489   13

 296   rms: 0.2505E+11   max: -.3911E+12   T at   32  2   RLX: 0.000
       a = 20.000      CL = -0.0000
      Cm =  0.0002     CD =  0.00000   =>   CDf =  0.00009    CDp = -0.00009

 MRCHDU: Convergence failed at  14  side 1    Res =  0.1278E+01
 Side 1  free  transition at x/c =  0.0479    9
 Side 2  free  transition at x/c =  0.4489   13

 297   rms: 0.1650E+12   max: 0.2577E+13   T at   32  2   RLX: 0.000
       a = 20.000      CL = -0.0000
      Cm =  0.0002     CD =  0.00000   =>   CDf =  0.00009    CDp = -0.00009

 MRCHDU: Convergence failed at  14  side 1    Res =  0.9397E-01
 Side 1  free  transition at x/c =  0.0479    9
 Side 2  free  transition at x/c =  0.4489   13

 298   rms: 0.7306E+11   max: 0.1141E+13   T at   32  2   RLX: 0.000
       a = 20.000      CL = -0.0000
      Cm =  0.0002     CD =  0.00000   =>   CDf =  0.00009    CDp = -0.00009

 MRCHDU: Convergence failed at  14  side 1    Res =  0.1274E+01
 Side 1  free  transition at x/c =  0.0479    9
 Side 2  free  transition at x/c =  0.4489   13

 299   rms: 0.1032E+14   max: -.1609E+15   T at   32  2   RLX: 0.000
       a = 20.000      CL = -0.0000
      Cm =  0.0002     CD =  0.00000   =>   CDf =  0.00009    CDp = -0.00009

 MRCHDU: Convergence failed at  14  side 1    Res =  0.9394E-01
 Side 1  free  transition at x/c =  0.0479    9
 Side 2  free  transition at x/c =  0.4489   13

 300   rms: 0.2273E+13   max: -.3548E+14   T at   32  2   RLX: 0.000
       a = 20.000      CL = -0.0000
      Cm =  0.0002     CD =  0.00000   =>   CDf =  0.00009    CDp = -0.00009
 VISCAL:  Convergence failed

.OPERva   c>  
.OPERva   c>  
.OPERva   c>  
        airfoil                    Re           Mach       Ncrit  XtripT  XtripB     file
       ------------------------  ------------  ----------  -----  ------  ------    -------------------
 >  1  naca64a210                1.000e5       0.000        9.00   1.000   1.000    

Enter polar output filename   s>  
.OPERva   c>  
 ==============================================================
 Polar  1
  
       XFOIL         Version 6.99
  
 Calculated polar for: naca64a210                                      
  
 1 1 Reynolds number fixed          Mach number fixed         
  
 xtrf =   1.000 (top)        1.000 (bottom)  
 Mach =   0.000     Re =     0.100 e 6     Ncrit =   9.000
  
   alpha    CL        CD       CDp       CM     Top_Xtr  Bot_Xtr
  ------ -------- --------- --------- -------- -------- --------
   0.000   0.1020   0.01685   0.00971  -0.0364   0.9506   1.0000
   1.000   0.2250   0.01743   0.01013  -0.0427   0.9118   1.0000
   2.000   0.3521   0.01869   0.01142  -0.0486   0.8745   1.0000
   3.000   0.4851   0.01960   0.01265  -0.0536   0.8374   1.0000
   4.000   0.6280   0.01551   0.00900  -0.0494   0.7447   1.0000
   5.000   0.6556   0.01990   0.00977  -0.0286   0.0744   1.0000
   6.000   0.7455   0.02581   0.01594  -0.0238   0.0588   1.0000
   7.000   0.8324   0.03697   0.02871  -0.0184   0.0369   1.0000
   8.000   0.8834   0.05035   0.04353  -0.0113   0.0370   1.0000
   9.000   0.8660   0.07757   0.07203  -0.0051   0.0723   1.0000
  10.000  -0.0190   0.00000  -0.00091   0.0063   0.1930   0.6972
  11.000  -0.0098   0.00000  -0.00087   0.0063   0.1486   0.6966
  12.000  -0.0142   0.00000  -0.00082   0.0056   0.1466   0.6970
  13.000  -0.0119   0.00000  -0.00075   0.0044   0.1267   0.6937
  14.000  -0.0076   0.00000  -0.00060   0.0036   0.0995   0.6473
  15.000  -0.0063   0.00000  -0.00045   0.0019   0.0845   0.5976
  16.000  -0.0017   0.00000  -0.00022   0.0006   0.0597   0.4978

.OPERva   c>  
 XFOIL   c>  